
 LIST ALL SELECTED ELEMENTS.  (LIST NODES)

 *** ANSYS - ENGINEERING ANALYSIS SYSTEM  RELEASE Release 16.1     16.1     ***
 ANSYS Academic Research                           
 00210476  VERSION=WINDOWS x64   13:08:48  AUG 31, 2019 CP=      7.922

                                                                               


 
    ELEM    MAT    TYP    REL    ESY    SEC        NODES
 
      14     14      1      1      0      1    180   181   574   575  3470  3475  5010  4910
      15     15      1      1      0      1    181   182   573   574  3475  3480  5110  5010
      16     16      1      1      0      1    182   183   572   573  3480  3485  5210  5110
      17     17      1      1      0      1    183   184   571   572  3485  3490  5310  5210
      18     18      1      1      0      1    184   185   570   571  3490  3495  5410  5310
      19     19      1      1      0      1    185   186   569   570  3495  3500  5510  5410
      20     20      1      1      0      1    186   187   568   569  3500  3505  5610  5510
      21     21      1      1      0      1    187   127   147   568  3505  3405  3705  5610
      38     38      1      1      0      1    572   571   551   552  5210  5310  5315  5215
      39     39      1      1      0      1    571   570   550   551  5310  5410  5415  5315
      40     40      1      1      0      1    570   569   549   550  5410  5510  5515  5415
      41     41      1      1      0      1    569   568   548   549  5510  5610  5615  5515
      42     42      1      1      0      1    568   147   146   548  5610  3705  3700  5615
      62     62      1      1      0      1    549   548   528   529  5515  5615  5620  5520
      63     63      1      1      0      1    548   146   145   528  5615  3700  3695  5620
     458    458      1      1      0      1   3485  3490  5310  5210  3486  3491  5311  5211
     459    459      1      1      0      1   3490  3495  5410  5310  3491  3496  5411  5311
     460    460      1      1      0      1   3495  3500  5510  5410  3496  3501  5511  5411
     461    461      1      1      0      1   3500  3505  5610  5510  3501  3506  5611  5511
     462    462      1      1      0      1   3505  3405  3705  5610  3506  3406  3706  5611
 
    ELEM    MAT    TYP    REL    ESY    SEC        NODES
 
     482    482      1      1      0      1   5510  5610  5615  5515  5511  5611  5616  5516
     483    483      1      1      0      1   5610  3705  3700  5615  5611  3706  3701  5616
     504    504      1      1      0      1   5615  3700  3695  5620  5616  3701  3696  5621
     902    902      1      1      0      1   3501  3506  5611  5511  3502  3507  5612  5512
     903    903      1      1      0      1   3506  3406  3706  5611  3507  3407  3707  5612
     924    924      1      1      0      1   5611  3706  3701  5616  5612  3707  3702  5617
    2647   2647      1      1      0      1     65   148  1387    66  3300  3510  5710  3305
    2648   2648      1      1      0      1    148   149  1386  1387  3510  3515  5810  5710
    2649   2649      1      1      0      1    149   150  1385  1386  3515  3520  5910  5810
    2650   2650      1      1      0      1    150   151  1384  1385  3520  3525  6010  5910
    2651   2651      1      1      0      1    151   152  1383  1384  3525  3530  6110  6010
    2652   2652      1      1      0      1    152   153  1382  1383  3530  3535  6210  6110
    2653   2653      1      1      0      1    153   154  1381  1382  3535  3540  6310  6210
    2654   2654      1      1      0      1    154   155  1380  1381  3540  3545  6410  6310
    2655   2655      1      1      0      1    155   156  1379  1380  3545  3550  6510  6410
    2656   2656      1      1      0      1    156   157  1378  1379  3550  3555  6610  6510
    2657   2657      1      1      0      1    157   158  1377  1378  3555  3560  6710  6610
    2658   2658      1      1      0      1    158   159  1376  1377  3560  3565  6810  6710
    2659   2659      1      1      0      1    159   160  1375  1376  3565  3570  6910  6810
    2660   2660      1      1      0      1    160   161  1374  1375  3570  3575  7010  6910
 
    ELEM    MAT    TYP    REL    ESY    SEC        NODES
 
    2661   2661      1      1      0      1    161   162  1373  1374  3575  3580  7110  7010
    2662   2662      1      1      0      1    162   163  1372  1373  3580  3585  7210  7110
    2663   2663      1      1      0      1    163   164  1371  1372  3585  3590  7310  7210
    2664   2664      1      1      0      1    164   165  1370  1371  3590  3595  7410  7310
    2665   2665      1      1      0      1    165   166  1369  1370  3595  3600  7510  7410
    2666   2666      1      1      0      1    166   167  1368  1369  3600  3605  7610  7510
    2667   2667      1      1      0      1    167   127   187  1368  3605  3405  3505  7610
    2668   2668      1      1      0      1     66  1387  1367    67  3305  5710  5715  3310
    2669   2669      1      1      0      1   1387  1386  1366  1367  5710  5810  5815  5715
    2670   2670      1      1      0      1   1386  1385  1365  1366  5810  5910  5915  5815
    2671   2671      1      1      0      1   1385  1384  1364  1365  5910  6010  6015  5915
    2672   2672      1      1      0      1   1384  1383  1363  1364  6010  6110  6115  6015
    2673   2673      1      1      0      1   1383  1382  1362  1363  6110  6210  6215  6115
    2674   2674      1      1      0      1   1382  1381  1361  1362  6210  6310  6315  6215
    2675   2675      1      1      0      1   1381  1380  1360  1361  6310  6410  6415  6315
    2676   2676      1      1      0      1   1380  1379  1359  1360  6410  6510  6515  6415
    2677   2677      1      1      0      1   1379  1378  1358  1359  6510  6610  6615  6515
    2678   2678      1      1      0      1   1378  1377  1357  1358  6610  6710  6715  6615
    2679   2679      1      1      0      1   1377  1376  1356  1357  6710  6810  6815  6715
    2680   2680      1      1      0      1   1376  1375  1355  1356  6810  6910  6915  6815
 
    ELEM    MAT    TYP    REL    ESY    SEC        NODES
 
    2681   2681      1      1      0      1   1375  1374  1354  1355  6910  7010  7015  6915
    2682   2682      1      1      0      1   1374  1373  1353  1354  7010  7110  7115  7015
    2683   2683      1      1      0      1   1373  1372  1352  1353  7110  7210  7215  7115
    2684   2684      1      1      0      1   1372  1371  1351  1352  7210  7310  7315  7215
    2685   2685      1      1      0      1   1371  1370  1350  1351  7310  7410  7415  7315
    2686   2686      1      1      0      1   1370  1369  1349  1350  7410  7510  7515  7415
    2687   2687      1      1      0      1   1369  1368  1348  1349  7510  7610  7615  7515
    2688   2688      1      1      0      1   1368   187   186  1348  7610  3505  3500  7615
    2689   2689      1      1      0      1     67  1367  1347    68  3310  5715  5720  3315
    2690   2690      1      1      0      1   1367  1366  1346  1347  5715  5815  5820  5720
    2691   2691      1      1      0      1   1366  1365  1345  1346  5815  5915  5920  5820
    2692   2692      1      1      0      1   1365  1364  1344  1345  5915  6015  6020  5920
    2693   2693      1      1      0      1   1364  1363  1343  1344  6015  6115  6120  6020
    2694   2694      1      1      0      1   1363  1362  1342  1343  6115  6215  6220  6120
    2695   2695      1      1      0      1   1362  1361  1341  1342  6215  6315  6320  6220
    2696   2696      1      1      0      1   1361  1360  1340  1341  6315  6415  6420  6320
    2697   2697      1      1      0      1   1360  1359  1339  1340  6415  6515  6520  6420
    2698   2698      1      1      0      1   1359  1358  1338  1339  6515  6615  6620  6520
    2699   2699      1      1      0      1   1358  1357  1337  1338  6615  6715  6720  6620
    2700   2700      1      1      0      1   1357  1356  1336  1337  6715  6815  6820  6720
 
    ELEM    MAT    TYP    REL    ESY    SEC        NODES
 
    2701   2701      1      1      0      1   1356  1355  1335  1336  6815  6915  6920  6820
    2702   2702      1      1      0      1   1355  1354  1334  1335  6915  7015  7020  6920
    2703   2703      1      1      0      1   1354  1353  1333  1334  7015  7115  7120  7020
    2704   2704      1      1      0      1   1353  1352  1332  1333  7115  7215  7220  7120
    2705   2705      1      1      0      1   1352  1351  1331  1332  7215  7315  7320  7220
    2706   2706      1      1      0      1   1351  1350  1330  1331  7315  7415  7420  7320
    2707   2707      1      1      0      1   1350  1349  1329  1330  7415  7515  7520  7420
    2708   2708      1      1      0      1   1349  1348  1328  1329  7515  7615  7620  7520
    2709   2709      1      1      0      1   1348   186   185  1328  7615  3500  3495  7620
    2710   2710      1      1      0      1     68  1347  1327    69  3315  5720  5725  3320
    2711   2711      1      1      0      1   1347  1346  1326  1327  5720  5820  5825  5725
    2712   2712      1      1      0      1   1346  1345  1325  1326  5820  5920  5925  5825
    2713   2713      1      1      0      1   1345  1344  1324  1325  5920  6020  6025  5925
    2714   2714      1      1      0      1   1344  1343  1323  1324  6020  6120  6125  6025
    2715   2715      1      1      0      1   1343  1342  1322  1323  6120  6220  6225  6125
    2716   2716      1      1      0      1   1342  1341  1321  1322  6220  6320  6325  6225
    2717   2717      1      1      0      1   1341  1340  1320  1321  6320  6420  6425  6325
    2718   2718      1      1      0      1   1340  1339  1319  1320  6420  6520  6525  6425
    2719   2719      1      1      0      1   1339  1338  1318  1319  6520  6620  6625  6525
    2720   2720      1      1      0      1   1338  1337  1317  1318  6620  6720  6725  6625
 
    ELEM    MAT    TYP    REL    ESY    SEC        NODES
 
    2721   2721      1      1      0      1   1337  1336  1316  1317  6720  6820  6825  6725
    2722   2722      1      1      0      1   1336  1335  1315  1316  6820  6920  6925  6825
    2723   2723      1      1      0      1   1335  1334  1314  1315  6920  7020  7025  6925
    2724   2724      1      1      0      1   1334  1333  1313  1314  7020  7120  7125  7025
    2725   2725      1      1      0      1   1333  1332  1312  1313  7120  7220  7225  7125
    2726   2726      1      1      0      1   1332  1331  1311  1312  7220  7320  7325  7225
    2727   2727      1      1      0      1   1331  1330  1310  1311  7320  7420  7425  7325
    2728   2728      1      1      0      1   1330  1329  1309  1310  7420  7520  7525  7425
    2729   2729      1      1      0      1   1329  1328  1308  1309  7520  7620  7625  7525
    2730   2730      1      1      0      1   1328   185   184  1308  7620  3495  3490  7625
    2731   2731      1      1      0      1     69  1327  1307    70  3320  5725  5730  3325
    2732   2732      1      1      0      1   1327  1326  1306  1307  5725  5825  5830  5730
    2733   2733      1      1      0      1   1326  1325  1305  1306  5825  5925  5930  5830
    2734   2734      1      1      0      1   1325  1324  1304  1305  5925  6025  6030  5930
    2735   2735      1      1      0      1   1324  1323  1303  1304  6025  6125  6130  6030
    2736   2736      1      1      0      1   1323  1322  1302  1303  6125  6225  6230  6130
    2737   2737      1      1      0      1   1322  1321  1301  1302  6225  6325  6330  6230
    2738   2738      1      1      0      1   1321  1320  1300  1301  6325  6425  6430  6330
    2739   2739      1      1      0      1   1320  1319  1299  1300  6425  6525  6530  6430
    2740   2740      1      1      0      1   1319  1318  1298  1299  6525  6625  6630  6530
 
    ELEM    MAT    TYP    REL    ESY    SEC        NODES
 
    2741   2741      1      1      0      1   1318  1317  1297  1298  6625  6725  6730  6630
    2742   2742      1      1      0      1   1317  1316  1296  1297  6725  6825  6830  6730
    2743   2743      1      1      0      1   1316  1315  1295  1296  6825  6925  6930  6830
    2744   2744      1      1      0      1   1315  1314  1294  1295  6925  7025  7030  6930
    2745   2745      1      1      0      1   1314  1313  1293  1294  7025  7125  7130  7030
    2746   2746      1      1      0      1   1313  1312  1292  1293  7125  7225  7230  7130
    2747   2747      1      1      0      1   1312  1311  1291  1292  7225  7325  7330  7230
    2748   2748      1      1      0      1   1311  1310  1290  1291  7325  7425  7430  7330
    2749   2749      1      1      0      1   1310  1309  1289  1290  7425  7525  7530  7430
    2750   2750      1      1      0      1   1309  1308  1288  1289  7525  7625  7630  7530
    2751   2751      1      1      0      1   1308   184   183  1288  7625  3490  3485  7630
    2752   2752      1      1      0      1     70  1307  1287    71  3325  5730  5735  3330
    2753   2753      1      1      0      1   1307  1306  1286  1287  5730  5830  5835  5735
    2754   2754      1      1      0      1   1306  1305  1285  1286  5830  5930  5935  5835
    2755   2755      1      1      0      1   1305  1304  1284  1285  5930  6030  6035  5935
    2756   2756      1      1      0      1   1304  1303  1283  1284  6030  6130  6135  6035
    2757   2757      1      1      0      1   1303  1302  1282  1283  6130  6230  6235  6135
    2758   2758      1      1      0      1   1302  1301  1281  1282  6230  6330  6335  6235
    2759   2759      1      1      0      1   1301  1300  1280  1281  6330  6430  6435  6335
    2760   2760      1      1      0      1   1300  1299  1279  1280  6430  6530  6535  6435
 
    ELEM    MAT    TYP    REL    ESY    SEC        NODES
 
    2761   2761      1      1      0      1   1299  1298  1278  1279  6530  6630  6635  6535
    2762   2762      1      1      0      1   1298  1297  1277  1278  6630  6730  6735  6635
    2763   2763      1      1      0      1   1297  1296  1276  1277  6730  6830  6835  6735
    2764   2764      1      1      0      1   1296  1295  1275  1276  6830  6930  6935  6835
    2765   2765      1      1      0      1   1295  1294  1274  1275  6930  7030  7035  6935
    2766   2766      1      1      0      1   1294  1293  1273  1274  7030  7130  7135  7035
    2767   2767      1      1      0      1   1293  1292  1272  1273  7130  7230  7235  7135
    2768   2768      1      1      0      1   1292  1291  1271  1272  7230  7330  7335  7235
    2769   2769      1      1      0      1   1291  1290  1270  1271  7330  7430  7435  7335
    2770   2770      1      1      0      1   1290  1289  1269  1270  7430  7530  7535  7435
    2771   2771      1      1      0      1   1289  1288  1268  1269  7530  7630  7635  7535
    2772   2772      1      1      0      1   1288   183   182  1268  7630  3485  3480  7635
    2773   2773      1      1      0      1     71  1287  1267    72  3330  5735  5740  3335
    2774   2774      1      1      0      1   1287  1286  1266  1267  5735  5835  5840  5740
    2775   2775      1      1      0      1   1286  1285  1265  1266  5835  5935  5940  5840
    2776   2776      1      1      0      1   1285  1284  1264  1265  5935  6035  6040  5940
    2777   2777      1      1      0      1   1284  1283  1263  1264  6035  6135  6140  6040
    2778   2778      1      1      0      1   1283  1282  1262  1263  6135  6235  6240  6140
    2779   2779      1      1      0      1   1282  1281  1261  1262  6235  6335  6340  6240
    2780   2780      1      1      0      1   1281  1280  1260  1261  6335  6435  6440  6340
 
    ELEM    MAT    TYP    REL    ESY    SEC        NODES
 
    2781   2781      1      1      0      1   1280  1279  1259  1260  6435  6535  6540  6440
    2782   2782      1      1      0      1   1279  1278  1258  1259  6535  6635  6640  6540
    2783   2783      1      1      0      1   1278  1277  1257  1258  6635  6735  6740  6640
    2784   2784      1      1      0      1   1277  1276  1256  1257  6735  6835  6840  6740
    2785   2785      1      1      0      1   1276  1275  1255  1256  6835  6935  6940  6840
    2786   2786      1      1      0      1   1275  1274  1254  1255  6935  7035  7040  6940
    2787   2787      1      1      0      1   1274  1273  1253  1254  7035  7135  7140  7040
    2788   2788      1      1      0      1   1273  1272  1252  1253  7135  7235  7240  7140
    2789   2789      1      1      0      1   1272  1271  1251  1252  7235  7335  7340  7240
    2790   2790      1      1      0      1   1271  1270  1250  1251  7335  7435  7440  7340
    2791   2791      1      1      0      1   1270  1269  1249  1250  7435  7535  7540  7440
    2792   2792      1      1      0      1   1269  1268  1248  1249  7535  7635  7640  7540
    2793   2793      1      1      0      1   1268   182   181  1248  7635  3480  3475  7640
    2794   2794      1      1      0      1     72  1267  1247    73  3335  5740  5745  3340
    2795   2795      1      1      0      1   1267  1266  1246  1247  5740  5840  5845  5745
    2796   2796      1      1      0      1   1266  1265  1245  1246  5840  5940  5945  5845
    2797   2797      1      1      0      1   1265  1264  1244  1245  5940  6040  6045  5945
    2798   2798      1      1      0      1   1264  1263  1243  1244  6040  6140  6145  6045
    2799   2799      1      1      0      1   1263  1262  1242  1243  6140  6240  6245  6145
    2800   2800      1      1      0      1   1262  1261  1241  1242  6240  6340  6345  6245
 
    ELEM    MAT    TYP    REL    ESY    SEC        NODES
 
    2801   2801      1      1      0      1   1261  1260  1240  1241  6340  6440  6445  6345
    2802   2802      1      1      0      1   1260  1259  1239  1240  6440  6540  6545  6445
    2803   2803      1      1      0      1   1259  1258  1238  1239  6540  6640  6645  6545
    2804   2804      1      1      0      1   1258  1257  1237  1238  6640  6740  6745  6645
    2805   2805      1      1      0      1   1257  1256  1236  1237  6740  6840  6845  6745
    2806   2806      1      1      0      1   1256  1255  1235  1236  6840  6940  6945  6845
    2807   2807      1      1      0      1   1255  1254  1234  1235  6940  7040  7045  6945
    2808   2808      1      1      0      1   1254  1253  1233  1234  7040  7140  7145  7045
    2809   2809      1      1      0      1   1253  1252  1232  1233  7140  7240  7245  7145
    2810   2810      1      1      0      1   1252  1251  1231  1232  7240  7340  7345  7245
    2811   2811      1      1      0      1   1251  1250  1230  1231  7340  7440  7445  7345
    2812   2812      1      1      0      1   1250  1249  1229  1230  7440  7540  7545  7445
    2813   2813      1      1      0      1   1249  1248  1228  1229  7540  7640  7645  7545
    2814   2814      1      1      0      1   1248   181   180  1228  7640  3475  3470  7645
    2815   2815      1      1      0      1     73  1247  1227    74  3340  5745  5750  3345
    2816   2816      1      1      0      1   1247  1246  1226  1227  5745  5845  5850  5750
    2817   2817      1      1      0      1   1246  1245  1225  1226  5845  5945  5950  5850
    2818   2818      1      1      0      1   1245  1244  1224  1225  5945  6045  6050  5950
    2819   2819      1      1      0      1   1244  1243  1223  1224  6045  6145  6150  6050
    2820   2820      1      1      0      1   1243  1242  1222  1223  6145  6245  6250  6150
 
    ELEM    MAT    TYP    REL    ESY    SEC        NODES
 
    2821   2821      1      1      0      1   1242  1241  1221  1222  6245  6345  6350  6250
    2822   2822      1      1      0      1   1241  1240  1220  1221  6345  6445  6450  6350
    2823   2823      1      1      0      1   1240  1239  1219  1220  6445  6545  6550  6450
    2824   2824      1      1      0      1   1239  1238  1218  1219  6545  6645  6650  6550
    2825   2825      1      1      0      1   1238  1237  1217  1218  6645  6745  6750  6650
    2826   2826      1      1      0      1   1237  1236  1216  1217  6745  6845  6850  6750
    2827   2827      1      1      0      1   1236  1235  1215  1216  6845  6945  6950  6850
    2828   2828      1      1      0      1   1235  1234  1214  1215  6945  7045  7050  6950
    2829   2829      1      1      0      1   1234  1233  1213  1214  7045  7145  7150  7050
    2830   2830      1      1      0      1   1233  1232  1212  1213  7145  7245  7250  7150
    2831   2831      1      1      0      1   1232  1231  1211  1212  7245  7345  7350  7250
    2832   2832      1      1      0      1   1231  1230  1210  1211  7345  7445  7450  7350
    2833   2833      1      1      0      1   1230  1229  1209  1210  7445  7545  7550  7450
    2834   2834      1      1      0      1   1229  1228  1208  1209  7545  7645  7650  7550
    2835   2835      1      1      0      1   1228   180   179  1208  7645  3470  3465  7650
    2836   2836      1      1      0      1     74  1227  1207    75  3345  5750  5755  3350
    2837   2837      1      1      0      1   1227  1226  1206  1207  5750  5850  5855  5755
    2838   2838      1      1      0      1   1226  1225  1205  1206  5850  5950  5955  5855
    2839   2839      1      1      0      1   1225  1224  1204  1205  5950  6050  6055  5955
    2840   2840      1      1      0      1   1224  1223  1203  1204  6050  6150  6155  6055
 
    ELEM    MAT    TYP    REL    ESY    SEC        NODES
 
    2841   2841      1      1      0      1   1223  1222  1202  1203  6150  6250  6255  6155
    2842   2842      1      1      0      1   1222  1221  1201  1202  6250  6350  6355  6255
    2843   2843      1      1      0      1   1221  1220  1200  1201  6350  6450  6455  6355
    2844   2844      1      1      0      1   1220  1219  1199  1200  6450  6550  6555  6455
    2845   2845      1      1      0      1   1219  1218  1198  1199  6550  6650  6655  6555
    2846   2846      1      1      0      1   1218  1217  1197  1198  6650  6750  6755  6655
    2847   2847      1      1      0      1   1217  1216  1196  1197  6750  6850  6855  6755
    2848   2848      1      1      0      1   1216  1215  1195  1196  6850  6950  6955  6855
    2849   2849      1      1      0      1   1215  1214  1194  1195  6950  7050  7055  6955
    2850   2850      1      1      0      1   1214  1213  1193  1194  7050  7150  7155  7055
    2851   2851      1      1      0      1   1213  1212  1192  1193  7150  7250  7255  7155
    2852   2852      1      1      0      1   1212  1211  1191  1192  7250  7350  7355  7255
    2853   2853      1      1      0      1   1211  1210  1190  1191  7350  7450  7455  7355
    2854   2854      1      1      0      1   1210  1209  1189  1190  7450  7550  7555  7455
    2855   2855      1      1      0      1   1209  1208  1188  1189  7550  7650  7655  7555
    2856   2856      1      1      0      1   1208   179   178  1188  7650  3465  3460  7655
    2857   2857      1      1      0      1     75  1207  1187    76  3350  5755  5760  3355
    2858   2858      1      1      0      1   1207  1206  1186  1187  5755  5855  5860  5760
    2859   2859      1      1      0      1   1206  1205  1185  1186  5855  5955  5960  5860
    2860   2860      1      1      0      1   1205  1204  1184  1185  5955  6055  6060  5960
 
    ELEM    MAT    TYP    REL    ESY    SEC        NODES
 
    2861   2861      1      1      0      1   1204  1203  1183  1184  6055  6155  6160  6060
    2862   2862      1      1      0      1   1203  1202  1182  1183  6155  6255  6260  6160
    2863   2863      1      1      0      1   1202  1201  1181  1182  6255  6355  6360  6260
    2864   2864      1      1      0      1   1201  1200  1180  1181  6355  6455  6460  6360
    2865   2865      1      1      0      1   1200  1199  1179  1180  6455  6555  6560  6460
    2866   2866      1      1      0      1   1199  1198  1178  1179  6555  6655  6660  6560
    2867   2867      1      1      0      1   1198  1197  1177  1178  6655  6755  6760  6660
    2868   2868      1      1      0      1   1197  1196  1176  1177  6755  6855  6860  6760
    2869   2869      1      1      0      1   1196  1195  1175  1176  6855  6955  6960  6860
    2870   2870      1      1      0      1   1195  1194  1174  1175  6955  7055  7060  6960
    2871   2871      1      1      0      1   1194  1193  1173  1174  7055  7155  7160  7060
    2872   2872      1      1      0      1   1193  1192  1172  1173  7155  7255  7260  7160
    2873   2873      1      1      0      1   1192  1191  1171  1172  7255  7355  7360  7260
    2874   2874      1      1      0      1   1191  1190  1170  1171  7355  7455  7460  7360
    2875   2875      1      1      0      1   1190  1189  1169  1170  7455  7555  7560  7460
    2876   2876      1      1      0      1   1189  1188  1168  1169  7555  7655  7660  7560
    2878   2878      1      1      0      1     76  1187  1167    77  3355  5760  5765  3360
    2879   2879      1      1      0      1   1187  1186  1166  1167  5760  5860  5865  5765
    2880   2880      1      1      0      1   1186  1185  1165  1166  5860  5960  5965  5865
    2881   2881      1      1      0      1   1185  1184  1164  1165  5960  6060  6065  5965
 
    ELEM    MAT    TYP    REL    ESY    SEC        NODES
 
    2882   2882      1      1      0      1   1184  1183  1163  1164  6060  6160  6165  6065
    2883   2883      1      1      0      1   1183  1182  1162  1163  6160  6260  6265  6165
    2884   2884      1      1      0      1   1182  1181  1161  1162  6260  6360  6365  6265
    2885   2885      1      1      0      1   1181  1180  1160  1161  6360  6460  6465  6365
    2886   2886      1      1      0      1   1180  1179  1159  1160  6460  6560  6565  6465
    2887   2887      1      1      0      1   1179  1178  1158  1159  6560  6660  6665  6565
    2888   2888      1      1      0      1   1178  1177  1157  1158  6660  6760  6765  6665
    2889   2889      1      1      0      1   1177  1176  1156  1157  6760  6860  6865  6765
    2890   2890      1      1      0      1   1176  1175  1155  1156  6860  6960  6965  6865
    2891   2891      1      1      0      1   1175  1174  1154  1155  6960  7060  7065  6965
    2892   2892      1      1      0      1   1174  1173  1153  1154  7060  7160  7165  7065
    2893   2893      1      1      0      1   1173  1172  1152  1153  7160  7260  7265  7165
    2894   2894      1      1      0      1   1172  1171  1151  1152  7260  7360  7365  7265
    2895   2895      1      1      0      1   1171  1170  1150  1151  7360  7460  7465  7365
    2896   2896      1      1      0      1   1170  1169  1149  1150  7460  7560  7565  7465
    2897   2897      1      1      0      1   1169  1168  1148  1149  7560  7660  7665  7565
    2903   2903      1      1      0      1   1164  1163  1143  1144  6065  6165  6170  6070
    2904   2904      1      1      0      1   1163  1162  1142  1143  6165  6265  6270  6170
    2905   2905      1      1      0      1   1162  1161  1141  1142  6265  6365  6370  6270
    2906   2906      1      1      0      1   1161  1160  1140  1141  6365  6465  6470  6370
 
    ELEM    MAT    TYP    REL    ESY    SEC        NODES
 
    2907   2907      1      1      0      1   1160  1159  1139  1140  6465  6565  6570  6470
    2908   2908      1      1      0      1   1159  1158  1138  1139  6565  6665  6670  6570
    2909   2909      1      1      0      1   1158  1157  1137  1138  6665  6765  6770  6670
    2910   2910      1      1      0      1   1157  1156  1136  1137  6765  6865  6870  6770
    2911   2911      1      1      0      1   1156  1155  1135  1136  6865  6965  6970  6870
    2912   2912      1      1      0      1   1155  1154  1134  1135  6965  7065  7070  6970
    2913   2913      1      1      0      1   1154  1153  1133  1134  7065  7165  7170  7070
    2914   2914      1      1      0      1   1153  1152  1132  1133  7165  7265  7270  7170
    2915   2915      1      1      0      1   1152  1151  1131  1132  7265  7365  7370  7270
    2916   2916      1      1      0      1   1151  1150  1130  1131  7365  7465  7470  7370
    2917   2917      1      1      0      1   1150  1149  1129  1130  7465  7565  7570  7470
    2928   2928      1      1      0      1   1140  1139  1119  1120  6470  6570  6575  6475
    2929   2929      1      1      0      1   1139  1138  1118  1119  6570  6670  6675  6575
    2930   2930      1      1      0      1   1138  1137  1117  1118  6670  6770  6775  6675
    2931   2931      1      1      0      1   1137  1136  1116  1117  6770  6870  6875  6775
    2932   2932      1      1      0      1   1136  1135  1115  1116  6870  6970  6975  6875
    2933   2933      1      1      0      1   1135  1134  1114  1115  6970  7070  7075  6975
    2934   2934      1      1      0      1   1134  1133  1113  1114  7070  7170  7175  7075
    2935   2935      1      1      0      1   1133  1132  1112  1113  7170  7270  7275  7175
    2936   2936      1      1      0      1   1132  1131  1111  1112  7270  7370  7375  7275
 
    ELEM    MAT    TYP    REL    ESY    SEC        NODES
 
    2937   2937      1      1      0      1   1131  1130  1110  1111  7370  7470  7475  7375
    2938   2938      1      1      0      1   1130  1129  1109  1110  7470  7570  7575  7475
    2954   2954      1      1      0      1   1115  1114  1094  1095  6975  7075  7080  6980
    2955   2955      1      1      0      1   1114  1113  1093  1094  7075  7175  7180  7080
    2956   2956      1      1      0      1   1113  1112  1092  1093  7175  7275  7280  7180
    2957   2957      1      1      0      1   1112  1111  1091  1092  7275  7375  7380  7280
    2958   2958      1      1      0      1   1111  1110  1090  1091  7375  7475  7480  7380
    3088   3088      1      1      0      1   3300  3510  5710  3305  3301  3511  5711  3306
    3089   3089      1      1      0      1   3510  3515  5810  5710  3511  3516  5811  5711
    3090   3090      1      1      0      1   3515  3520  5910  5810  3516  3521  5911  5811
    3091   3091      1      1      0      1   3520  3525  6010  5910  3521  3526  6011  5911
    3092   3092      1      1      0      1   3525  3530  6110  6010  3526  3531  6111  6011
    3093   3093      1      1      0      1   3530  3535  6210  6110  3531  3536  6211  6111
    3094   3094      1      1      0      1   3535  3540  6310  6210  3536  3541  6311  6211
    3095   3095      1      1      0      1   3540  3545  6410  6310  3541  3546  6411  6311
    3096   3096      1      1      0      1   3545  3550  6510  6410  3546  3551  6511  6411
    3097   3097      1      1      0      1   3550  3555  6610  6510  3551  3556  6611  6511
    3098   3098      1      1      0      1   3555  3560  6710  6610  3556  3561  6711  6611
    3099   3099      1      1      0      1   3560  3565  6810  6710  3561  3566  6811  6711
    3100   3100      1      1      0      1   3565  3570  6910  6810  3566  3571  6911  6811
 
    ELEM    MAT    TYP    REL    ESY    SEC        NODES
 
    3101   3101      1      1      0      1   3570  3575  7010  6910  3571  3576  7011  6911
    3102   3102      1      1      0      1   3575  3580  7110  7010  3576  3581  7111  7011
    3103   3103      1      1      0      1   3580  3585  7210  7110  3581  3586  7211  7111
    3104   3104      1      1      0      1   3585  3590  7310  7210  3586  3591  7311  7211
    3105   3105      1      1      0      1   3590  3595  7410  7310  3591  3596  7411  7311
    3106   3106      1      1      0      1   3595  3600  7510  7410  3596  3601  7511  7411
    3107   3107      1      1      0      1   3600  3605  7610  7510  3601  3606  7611  7511
    3108   3108      1      1      0      1   3605  3405  3505  7610  3606  3406  3506  7611
    3109   3109      1      1      0      1   3305  5710  5715  3310  3306  5711  5716  3311
    3110   3110      1      1      0      1   5710  5810  5815  5715  5711  5811  5816  5716
    3111   3111      1      1      0      1   5810  5910  5915  5815  5811  5911  5916  5816
    3112   3112      1      1      0      1   5910  6010  6015  5915  5911  6011  6016  5916
    3113   3113      1      1      0      1   6010  6110  6115  6015  6011  6111  6116  6016
    3114   3114      1      1      0      1   6110  6210  6215  6115  6111  6211  6216  6116
    3115   3115      1      1      0      1   6210  6310  6315  6215  6211  6311  6316  6216
    3116   3116      1      1      0      1   6310  6410  6415  6315  6311  6411  6416  6316
    3117   3117      1      1      0      1   6410  6510  6515  6415  6411  6511  6516  6416
    3118   3118      1      1      0      1   6510  6610  6615  6515  6511  6611  6616  6516
    3119   3119      1      1      0      1   6610  6710  6715  6615  6611  6711  6716  6616
    3120   3120      1      1      0      1   6710  6810  6815  6715  6711  6811  6816  6716
 
    ELEM    MAT    TYP    REL    ESY    SEC        NODES
 
    3121   3121      1      1      0      1   6810  6910  6915  6815  6811  6911  6916  6816
    3122   3122      1      1      0      1   6910  7010  7015  6915  6911  7011  7016  6916
    3123   3123      1      1      0      1   7010  7110  7115  7015  7011  7111  7116  7016
    3124   3124      1      1      0      1   7110  7210  7215  7115  7111  7211  7216  7116
    3125   3125      1      1      0      1   7210  7310  7315  7215  7211  7311  7316  7216
    3126   3126      1      1      0      1   7310  7410  7415  7315  7311  7411  7416  7316
    3127   3127      1      1      0      1   7410  7510  7515  7415  7411  7511  7516  7416
    3128   3128      1      1      0      1   7510  7610  7615  7515  7511  7611  7616  7516
    3129   3129      1      1      0      1   7610  3505  3500  7615  7611  3506  3501  7616
    3130   3130      1      1      0      1   3310  5715  5720  3315  3311  5716  5721  3316
    3131   3131      1      1      0      1   5715  5815  5820  5720  5716  5816  5821  5721
    3132   3132      1      1      0      1   5815  5915  5920  5820  5816  5916  5921  5821
    3133   3133      1      1      0      1   5915  6015  6020  5920  5916  6016  6021  5921
    3134   3134      1      1      0      1   6015  6115  6120  6020  6016  6116  6121  6021
    3135   3135      1      1      0      1   6115  6215  6220  6120  6116  6216  6221  6121
    3136   3136      1      1      0      1   6215  6315  6320  6220  6216  6316  6321  6221
    3137   3137      1      1      0      1   6315  6415  6420  6320  6316  6416  6421  6321
    3138   3138      1      1      0      1   6415  6515  6520  6420  6416  6516  6521  6421
    3139   3139      1      1      0      1   6515  6615  6620  6520  6516  6616  6621  6521
    3140   3140      1      1      0      1   6615  6715  6720  6620  6616  6716  6721  6621
 
    ELEM    MAT    TYP    REL    ESY    SEC        NODES
 
    3141   3141      1      1      0      1   6715  6815  6820  6720  6716  6816  6821  6721
    3142   3142      1      1      0      1   6815  6915  6920  6820  6816  6916  6921  6821
    3143   3143      1      1      0      1   6915  7015  7020  6920  6916  7016  7021  6921
    3144   3144      1      1      0      1   7015  7115  7120  7020  7016  7116  7121  7021
    3145   3145      1      1      0      1   7115  7215  7220  7120  7116  7216  7221  7121
    3146   3146      1      1      0      1   7215  7315  7320  7220  7216  7316  7321  7221
    3147   3147      1      1      0      1   7315  7415  7420  7320  7316  7416  7421  7321
    3148   3148      1      1      0      1   7415  7515  7520  7420  7416  7516  7521  7421
    3149   3149      1      1      0      1   7515  7615  7620  7520  7516  7616  7621  7521
    3150   3150      1      1      0      1   7615  3500  3495  7620  7616  3501  3496  7621
    3151   3151      1      1      0      1   3315  5720  5725  3320  3316  5721  5726  3321
    3152   3152      1      1      0      1   5720  5820  5825  5725  5721  5821  5826  5726
    3153   3153      1      1      0      1   5820  5920  5925  5825  5821  5921  5926  5826
    3154   3154      1      1      0      1   5920  6020  6025  5925  5921  6021  6026  5926
    3155   3155      1      1      0      1   6020  6120  6125  6025  6021  6121  6126  6026
    3156   3156      1      1      0      1   6120  6220  6225  6125  6121  6221  6226  6126
    3157   3157      1      1      0      1   6220  6320  6325  6225  6221  6321  6326  6226
    3158   3158      1      1      0      1   6320  6420  6425  6325  6321  6421  6426  6326
    3159   3159      1      1      0      1   6420  6520  6525  6425  6421  6521  6526  6426
    3160   3160      1      1      0      1   6520  6620  6625  6525  6521  6621  6626  6526
 
    ELEM    MAT    TYP    REL    ESY    SEC        NODES
 
    3161   3161      1      1      0      1   6620  6720  6725  6625  6621  6721  6726  6626
    3162   3162      1      1      0      1   6720  6820  6825  6725  6721  6821  6826  6726
    3163   3163      1      1      0      1   6820  6920  6925  6825  6821  6921  6926  6826
    3164   3164      1      1      0      1   6920  7020  7025  6925  6921  7021  7026  6926
    3165   3165      1      1      0      1   7020  7120  7125  7025  7021  7121  7126  7026
    3166   3166      1      1      0      1   7120  7220  7225  7125  7121  7221  7226  7126
    3167   3167      1      1      0      1   7220  7320  7325  7225  7221  7321  7326  7226
    3168   3168      1      1      0      1   7320  7420  7425  7325  7321  7421  7426  7326
    3169   3169      1      1      0      1   7420  7520  7525  7425  7421  7521  7526  7426
    3170   3170      1      1      0      1   7520  7620  7625  7525  7521  7621  7626  7526
    3171   3171      1      1      0      1   7620  3495  3490  7625  7621  3496  3491  7626
    3172   3172      1      1      0      1   3320  5725  5730  3325  3321  5726  5731  3326
    3173   3173      1      1      0      1   5725  5825  5830  5730  5726  5826  5831  5731
    3174   3174      1      1      0      1   5825  5925  5930  5830  5826  5926  5931  5831
    3175   3175      1      1      0      1   5925  6025  6030  5930  5926  6026  6031  5931
    3176   3176      1      1      0      1   6025  6125  6130  6030  6026  6126  6131  6031
    3177   3177      1      1      0      1   6125  6225  6230  6130  6126  6226  6231  6131
    3178   3178      1      1      0      1   6225  6325  6330  6230  6226  6326  6331  6231
    3179   3179      1      1      0      1   6325  6425  6430  6330  6326  6426  6431  6331
    3180   3180      1      1      0      1   6425  6525  6530  6430  6426  6526  6531  6431
 
    ELEM    MAT    TYP    REL    ESY    SEC        NODES
 
    3181   3181      1      1      0      1   6525  6625  6630  6530  6526  6626  6631  6531
    3182   3182      1      1      0      1   6625  6725  6730  6630  6626  6726  6731  6631
    3183   3183      1      1      0      1   6725  6825  6830  6730  6726  6826  6831  6731
    3184   3184      1      1      0      1   6825  6925  6930  6830  6826  6926  6931  6831
    3185   3185      1      1      0      1   6925  7025  7030  6930  6926  7026  7031  6931
    3186   3186      1      1      0      1   7025  7125  7130  7030  7026  7126  7131  7031
    3187   3187      1      1      0      1   7125  7225  7230  7130  7126  7226  7231  7131
    3188   3188      1      1      0      1   7225  7325  7330  7230  7226  7326  7331  7231
    3189   3189      1      1      0      1   7325  7425  7430  7330  7326  7426  7431  7331
    3190   3190      1      1      0      1   7425  7525  7530  7430  7426  7526  7531  7431
    3191   3191      1      1      0      1   7525  7625  7630  7530  7526  7626  7631  7531
    3192   3192      1      1      0      1   7625  3490  3485  7630  7626  3491  3486  7631
    3193   3193      1      1      0      1   3325  5730  5735  3330  3326  5731  5736  3331
    3194   3194      1      1      0      1   5730  5830  5835  5735  5731  5831  5836  5736
    3195   3195      1      1      0      1   5830  5930  5935  5835  5831  5931  5936  5836
    3196   3196      1      1      0      1   5930  6030  6035  5935  5931  6031  6036  5936
    3197   3197      1      1      0      1   6030  6130  6135  6035  6031  6131  6136  6036
    3198   3198      1      1      0      1   6130  6230  6235  6135  6131  6231  6236  6136
    3199   3199      1      1      0      1   6230  6330  6335  6235  6231  6331  6336  6236
    3200   3200      1      1      0      1   6330  6430  6435  6335  6331  6431  6436  6336
 
    ELEM    MAT    TYP    REL    ESY    SEC        NODES
 
    3201   3201      1      1      0      1   6430  6530  6535  6435  6431  6531  6536  6436
    3202   3202      1      1      0      1   6530  6630  6635  6535  6531  6631  6636  6536
    3203   3203      1      1      0      1   6630  6730  6735  6635  6631  6731  6736  6636
    3204   3204      1      1      0      1   6730  6830  6835  6735  6731  6831  6836  6736
    3205   3205      1      1      0      1   6830  6930  6935  6835  6831  6931  6936  6836
    3206   3206      1      1      0      1   6930  7030  7035  6935  6931  7031  7036  6936
    3207   3207      1      1      0      1   7030  7130  7135  7035  7031  7131  7136  7036
    3208   3208      1      1      0      1   7130  7230  7235  7135  7131  7231  7236  7136
    3209   3209      1      1      0      1   7230  7330  7335  7235  7231  7331  7336  7236
    3210   3210      1      1      0      1   7330  7430  7435  7335  7331  7431  7436  7336
    3211   3211      1      1      0      1   7430  7530  7535  7435  7431  7531  7536  7436
    3212   3212      1      1      0      1   7530  7630  7635  7535  7531  7631  7636  7536
    3213   3213      1      1      0      1   7630  3485  3480  7635  7631  3486  3481  7636
    3214   3214      1      1      0      1   3330  5735  5740  3335  3331  5736  5741  3336
    3215   3215      1      1      0      1   5735  5835  5840  5740  5736  5836  5841  5741
    3216   3216      1      1      0      1   5835  5935  5940  5840  5836  5936  5941  5841
    3217   3217      1      1      0      1   5935  6035  6040  5940  5936  6036  6041  5941
    3218   3218      1      1      0      1   6035  6135  6140  6040  6036  6136  6141  6041
    3219   3219      1      1      0      1   6135  6235  6240  6140  6136  6236  6241  6141
    3220   3220      1      1      0      1   6235  6335  6340  6240  6236  6336  6341  6241
 
    ELEM    MAT    TYP    REL    ESY    SEC        NODES
 
    3221   3221      1      1      0      1   6335  6435  6440  6340  6336  6436  6441  6341
    3222   3222      1      1      0      1   6435  6535  6540  6440  6436  6536  6541  6441
    3223   3223      1      1      0      1   6535  6635  6640  6540  6536  6636  6641  6541
    3224   3224      1      1      0      1   6635  6735  6740  6640  6636  6736  6741  6641
    3225   3225      1      1      0      1   6735  6835  6840  6740  6736  6836  6841  6741
    3226   3226      1      1      0      1   6835  6935  6940  6840  6836  6936  6941  6841
    3227   3227      1      1      0      1   6935  7035  7040  6940  6936  7036  7041  6941
    3228   3228      1      1      0      1   7035  7135  7140  7040  7036  7136  7141  7041
    3229   3229      1      1      0      1   7135  7235  7240  7140  7136  7236  7241  7141
    3230   3230      1      1      0      1   7235  7335  7340  7240  7236  7336  7341  7241
    3231   3231      1      1      0      1   7335  7435  7440  7340  7336  7436  7441  7341
    3232   3232      1      1      0      1   7435  7535  7540  7440  7436  7536  7541  7441
    3233   3233      1      1      0      1   7535  7635  7640  7540  7536  7636  7641  7541
    3234   3234      1      1      0      1   7635  3480  3475  7640  7636  3481  3476  7641
    3235   3235      1      1      0      1   3335  5740  5745  3340  3336  5741  5746  3341
    3236   3236      1      1      0      1   5740  5840  5845  5745  5741  5841  5846  5746
    3237   3237      1      1      0      1   5840  5940  5945  5845  5841  5941  5946  5846
    3238   3238      1      1      0      1   5940  6040  6045  5945  5941  6041  6046  5946
    3239   3239      1      1      0      1   6040  6140  6145  6045  6041  6141  6146  6046
    3240   3240      1      1      0      1   6140  6240  6245  6145  6141  6241  6246  6146
 
    ELEM    MAT    TYP    REL    ESY    SEC        NODES
 
    3241   3241      1      1      0      1   6240  6340  6345  6245  6241  6341  6346  6246
    3242   3242      1      1      0      1   6340  6440  6445  6345  6341  6441  6446  6346
    3243   3243      1      1      0      1   6440  6540  6545  6445  6441  6541  6546  6446
    3244   3244      1      1      0      1   6540  6640  6645  6545  6541  6641  6646  6546
    3245   3245      1      1      0      1   6640  6740  6745  6645  6641  6741  6746  6646
    3246   3246      1      1      0      1   6740  6840  6845  6745  6741  6841  6846  6746
    3247   3247      1      1      0      1   6840  6940  6945  6845  6841  6941  6946  6846
    3248   3248      1      1      0      1   6940  7040  7045  6945  6941  7041  7046  6946
    3249   3249      1      1      0      1   7040  7140  7145  7045  7041  7141  7146  7046
    3250   3250      1      1      0      1   7140  7240  7245  7145  7141  7241  7246  7146
    3251   3251      1      1      0      1   7240  7340  7345  7245  7241  7341  7346  7246
    3252   3252      1      1      0      1   7340  7440  7445  7345  7341  7441  7446  7346
    3253   3253      1      1      0      1   7440  7540  7545  7445  7441  7541  7546  7446
    3254   3254      1      1      0      1   7540  7640  7645  7545  7541  7641  7646  7546
    3256   3256      1      1      0      1   3340  5745  5750  3345  3341  5746  5751  3346
    3257   3257      1      1      0      1   5745  5845  5850  5750  5746  5846  5851  5751
    3258   3258      1      1      0      1   5845  5945  5950  5850  5846  5946  5951  5851
    3259   3259      1      1      0      1   5945  6045  6050  5950  5946  6046  6051  5951
    3260   3260      1      1      0      1   6045  6145  6150  6050  6046  6146  6151  6051
    3261   3261      1      1      0      1   6145  6245  6250  6150  6146  6246  6251  6151
 
    ELEM    MAT    TYP    REL    ESY    SEC        NODES
 
    3262   3262      1      1      0      1   6245  6345  6350  6250  6246  6346  6351  6251
    3263   3263      1      1      0      1   6345  6445  6450  6350  6346  6446  6451  6351
    3264   3264      1      1      0      1   6445  6545  6550  6450  6446  6546  6551  6451
    3265   3265      1      1      0      1   6545  6645  6650  6550  6546  6646  6651  6551
    3266   3266      1      1      0      1   6645  6745  6750  6650  6646  6746  6751  6651
    3267   3267      1      1      0      1   6745  6845  6850  6750  6746  6846  6851  6751
    3268   3268      1      1      0      1   6845  6945  6950  6850  6846  6946  6951  6851
    3269   3269      1      1      0      1   6945  7045  7050  6950  6946  7046  7051  6951
    3270   3270      1      1      0      1   7045  7145  7150  7050  7046  7146  7151  7051
    3271   3271      1      1      0      1   7145  7245  7250  7150  7146  7246  7251  7151
    3272   3272      1      1      0      1   7245  7345  7350  7250  7246  7346  7351  7251
    3273   3273      1      1      0      1   7345  7445  7450  7350  7346  7446  7451  7351
    3274   3274      1      1      0      1   7445  7545  7550  7450  7446  7546  7551  7451
    3275   3275      1      1      0      1   7545  7645  7650  7550  7546  7646  7651  7551
    3277   3277      1      1      0      1   3345  5750  5755  3350  3346  5751  5756  3351
    3278   3278      1      1      0      1   5750  5850  5855  5755  5751  5851  5856  5756
    3279   3279      1      1      0      1   5850  5950  5955  5855  5851  5951  5956  5856
    3280   3280      1      1      0      1   5950  6050  6055  5955  5951  6051  6056  5956
    3281   3281      1      1      0      1   6050  6150  6155  6055  6051  6151  6156  6056
    3282   3282      1      1      0      1   6150  6250  6255  6155  6151  6251  6256  6156
 
    ELEM    MAT    TYP    REL    ESY    SEC        NODES
 
    3283   3283      1      1      0      1   6250  6350  6355  6255  6251  6351  6356  6256
    3284   3284      1      1      0      1   6350  6450  6455  6355  6351  6451  6456  6356
    3285   3285      1      1      0      1   6450  6550  6555  6455  6451  6551  6556  6456
    3286   3286      1      1      0      1   6550  6650  6655  6555  6551  6651  6656  6556
    3287   3287      1      1      0      1   6650  6750  6755  6655  6651  6751  6756  6656
    3288   3288      1      1      0      1   6750  6850  6855  6755  6751  6851  6856  6756
    3289   3289      1      1      0      1   6850  6950  6955  6855  6851  6951  6956  6856
    3290   3290      1      1      0      1   6950  7050  7055  6955  6951  7051  7056  6956
    3291   3291      1      1      0      1   7050  7150  7155  7055  7051  7151  7156  7056
    3292   3292      1      1      0      1   7150  7250  7255  7155  7151  7251  7256  7156
    3293   3293      1      1      0      1   7250  7350  7355  7255  7251  7351  7356  7256
    3294   3294      1      1      0      1   7350  7450  7455  7355  7351  7451  7456  7356
    3295   3295      1      1      0      1   7450  7550  7555  7455  7451  7551  7556  7456
    3298   3298      1      1      0      1   3350  5755  5760  3355  3351  5756  5761  3356
    3299   3299      1      1      0      1   5755  5855  5860  5760  5756  5856  5861  5761
    3300   3300      1      1      0      1   5855  5955  5960  5860  5856  5956  5961  5861
    3301   3301      1      1      0      1   5955  6055  6060  5960  5956  6056  6061  5961
    3302   3302      1      1      0      1   6055  6155  6160  6060  6056  6156  6161  6061
    3303   3303      1      1      0      1   6155  6255  6260  6160  6156  6256  6261  6161
    3304   3304      1      1      0      1   6255  6355  6360  6260  6256  6356  6361  6261
 
    ELEM    MAT    TYP    REL    ESY    SEC        NODES
 
    3305   3305      1      1      0      1   6355  6455  6460  6360  6356  6456  6461  6361
    3306   3306      1      1      0      1   6455  6555  6560  6460  6456  6556  6561  6461
    3307   3307      1      1      0      1   6555  6655  6660  6560  6556  6656  6661  6561
    3308   3308      1      1      0      1   6655  6755  6760  6660  6656  6756  6761  6661
    3309   3309      1      1      0      1   6755  6855  6860  6760  6756  6856  6861  6761
    3310   3310      1      1      0      1   6855  6955  6960  6860  6856  6956  6961  6861
    3311   3311      1      1      0      1   6955  7055  7060  6960  6956  7056  7061  6961
    3312   3312      1      1      0      1   7055  7155  7160  7060  7056  7156  7161  7061
    3313   3313      1      1      0      1   7155  7255  7260  7160  7156  7256  7261  7161
    3314   3314      1      1      0      1   7255  7355  7360  7260  7256  7356  7361  7261
    3315   3315      1      1      0      1   7355  7455  7460  7360  7356  7456  7461  7361
    3323   3323      1      1      0      1   6060  6160  6165  6065  6061  6161  6166  6066
    3324   3324      1      1      0      1   6160  6260  6265  6165  6161  6261  6266  6166
    3325   3325      1      1      0      1   6260  6360  6365  6265  6261  6361  6366  6266
    3326   3326      1      1      0      1   6360  6460  6465  6365  6361  6461  6466  6366
    3327   3327      1      1      0      1   6460  6560  6565  6465  6461  6561  6566  6466
    3328   3328      1      1      0      1   6560  6660  6665  6565  6561  6661  6666  6566
    3329   3329      1      1      0      1   6660  6760  6765  6665  6661  6761  6766  6666
    3330   3330      1      1      0      1   6760  6860  6865  6765  6761  6861  6866  6766
    3331   3331      1      1      0      1   6860  6960  6965  6865  6861  6961  6966  6866
 
    ELEM    MAT    TYP    REL    ESY    SEC        NODES
 
    3332   3332      1      1      0      1   6960  7060  7065  6965  6961  7061  7066  6966
    3333   3333      1      1      0      1   7060  7160  7165  7065  7061  7161  7166  7066
    3334   3334      1      1      0      1   7160  7260  7265  7165  7161  7261  7266  7166
    3335   3335      1      1      0      1   7260  7360  7365  7265  7261  7361  7366  7266
    3350   3350      1      1      0      1   6665  6765  6770  6670  6666  6766  6771  6671
    3351   3351      1      1      0      1   6765  6865  6870  6770  6766  6866  6871  6771
    3352   3352      1      1      0      1   6865  6965  6970  6870  6866  6966  6971  6871
    3353   3353      1      1      0      1   6965  7065  7070  6970  6966  7066  7071  6971
    3354   3354      1      1      0      1   7065  7165  7170  7070  7066  7166  7171  7071
    3529   3529      1      1      0      1   3301  3511  5711  3306  3302  3512  5712  3307
    3530   3530      1      1      0      1   3511  3516  5811  5711  3512  3517  5812  5712
    3531   3531      1      1      0      1   3516  3521  5911  5811  3517  3522  5912  5812
    3532   3532      1      1      0      1   3521  3526  6011  5911  3522  3527  6012  5912
    3533   3533      1      1      0      1   3526  3531  6111  6011  3527  3532  6112  6012
    3534   3534      1      1      0      1   3531  3536  6211  6111  3532  3537  6212  6112
    3535   3535      1      1      0      1   3536  3541  6311  6211  3537  3542  6312  6212
    3536   3536      1      1      0      1   3541  3546  6411  6311  3542  3547  6412  6312
    3537   3537      1      1      0      1   3546  3551  6511  6411  3547  3552  6512  6412
    3538   3538      1      1      0      1   3551  3556  6611  6511  3552  3557  6612  6512
    3539   3539      1      1      0      1   3556  3561  6711  6611  3557  3562  6712  6612
 
    ELEM    MAT    TYP    REL    ESY    SEC        NODES
 
    3540   3540      1      1      0      1   3561  3566  6811  6711  3562  3567  6812  6712
    3541   3541      1      1      0      1   3566  3571  6911  6811  3567  3572  6912  6812
    3542   3542      1      1      0      1   3571  3576  7011  6911  3572  3577  7012  6912
    3543   3543      1      1      0      1   3576  3581  7111  7011  3577  3582  7112  7012
    3544   3544      1      1      0      1   3581  3586  7211  7111  3582  3587  7212  7112
    3545   3545      1      1      0      1   3586  3591  7311  7211  3587  3592  7312  7212
    3546   3546      1      1      0      1   3591  3596  7411  7311  3592  3597  7412  7312
    3547   3547      1      1      0      1   3596  3601  7511  7411  3597  3602  7512  7412
    3548   3548      1      1      0      1   3601  3606  7611  7511  3602  3607  7612  7512
    3549   3549      1      1      0      1   3606  3406  3506  7611  3607  3407  3507  7612
    3550   3550      1      1      0      1   3306  5711  5716  3311  3307  5712  5717  3312
    3551   3551      1      1      0      1   5711  5811  5816  5716  5712  5812  5817  5717
    3552   3552      1      1      0      1   5811  5911  5916  5816  5812  5912  5917  5817
    3553   3553      1      1      0      1   5911  6011  6016  5916  5912  6012  6017  5917
    3554   3554      1      1      0      1   6011  6111  6116  6016  6012  6112  6117  6017
    3555   3555      1      1      0      1   6111  6211  6216  6116  6112  6212  6217  6117
    3556   3556      1      1      0      1   6211  6311  6316  6216  6212  6312  6317  6217
    3557   3557      1      1      0      1   6311  6411  6416  6316  6312  6412  6417  6317
    3558   3558      1      1      0      1   6411  6511  6516  6416  6412  6512  6517  6417
    3559   3559      1      1      0      1   6511  6611  6616  6516  6512  6612  6617  6517
 
    ELEM    MAT    TYP    REL    ESY    SEC        NODES
 
    3560   3560      1      1      0      1   6611  6711  6716  6616  6612  6712  6717  6617
    3561   3561      1      1      0      1   6711  6811  6816  6716  6712  6812  6817  6717
    3562   3562      1      1      0      1   6811  6911  6916  6816  6812  6912  6917  6817
    3563   3563      1      1      0      1   6911  7011  7016  6916  6912  7012  7017  6917
    3564   3564      1      1      0      1   7011  7111  7116  7016  7012  7112  7117  7017
    3565   3565      1      1      0      1   7111  7211  7216  7116  7112  7212  7217  7117
    3566   3566      1      1      0      1   7211  7311  7316  7216  7212  7312  7317  7217
    3567   3567      1      1      0      1   7311  7411  7416  7316  7312  7412  7417  7317
    3568   3568      1      1      0      1   7411  7511  7516  7416  7412  7512  7517  7417
    3569   3569      1      1      0      1   7511  7611  7616  7516  7512  7612  7617  7517
    3570   3570      1      1      0      1   7611  3506  3501  7616  7612  3507  3502  7617
    3571   3571      1      1      0      1   3311  5716  5721  3316  3312  5717  5722  3317
    3572   3572      1      1      0      1   5716  5816  5821  5721  5717  5817  5822  5722
    3573   3573      1      1      0      1   5816  5916  5921  5821  5817  5917  5922  5822
    3574   3574      1      1      0      1   5916  6016  6021  5921  5917  6017  6022  5922
    3575   3575      1      1      0      1   6016  6116  6121  6021  6017  6117  6122  6022
    3576   3576      1      1      0      1   6116  6216  6221  6121  6117  6217  6222  6122
    3577   3577      1      1      0      1   6216  6316  6321  6221  6217  6317  6322  6222
    3578   3578      1      1      0      1   6316  6416  6421  6321  6317  6417  6422  6322
    3579   3579      1      1      0      1   6416  6516  6521  6421  6417  6517  6522  6422
 
    ELEM    MAT    TYP    REL    ESY    SEC        NODES
 
    3580   3580      1      1      0      1   6516  6616  6621  6521  6517  6617  6622  6522
    3581   3581      1      1      0      1   6616  6716  6721  6621  6617  6717  6722  6622
    3582   3582      1      1      0      1   6716  6816  6821  6721  6717  6817  6822  6722
    3583   3583      1      1      0      1   6816  6916  6921  6821  6817  6917  6922  6822
    3584   3584      1      1      0      1   6916  7016  7021  6921  6917  7017  7022  6922
    3585   3585      1      1      0      1   7016  7116  7121  7021  7017  7117  7122  7022
    3586   3586      1      1      0      1   7116  7216  7221  7121  7117  7217  7222  7122
    3587   3587      1      1      0      1   7216  7316  7321  7221  7217  7317  7322  7222
    3588   3588      1      1      0      1   7316  7416  7421  7321  7317  7417  7422  7322
    3589   3589      1      1      0      1   7416  7516  7521  7421  7417  7517  7522  7422
    3590   3590      1      1      0      1   7516  7616  7621  7521  7517  7617  7622  7522
    3591   3591      1      1      0      1   7616  3501  3496  7621  7617  3502  3497  7622
    3592   3592      1      1      0      1   3316  5721  5726  3321  3317  5722  5727  3322
    3593   3593      1      1      0      1   5721  5821  5826  5726  5722  5822  5827  5727
    3594   3594      1      1      0      1   5821  5921  5926  5826  5822  5922  5927  5827
    3595   3595      1      1      0      1   5921  6021  6026  5926  5922  6022  6027  5927
    3596   3596      1      1      0      1   6021  6121  6126  6026  6022  6122  6127  6027
    3597   3597      1      1      0      1   6121  6221  6226  6126  6122  6222  6227  6127
    3598   3598      1      1      0      1   6221  6321  6326  6226  6222  6322  6327  6227
    3599   3599      1      1      0      1   6321  6421  6426  6326  6322  6422  6427  6327
 
    ELEM    MAT    TYP    REL    ESY    SEC        NODES
 
    3600   3600      1      1      0      1   6421  6521  6526  6426  6422  6522  6527  6427
    3601   3601      1      1      0      1   6521  6621  6626  6526  6522  6622  6627  6527
    3602   3602      1      1      0      1   6621  6721  6726  6626  6622  6722  6727  6627
    3603   3603      1      1      0      1   6721  6821  6826  6726  6722  6822  6827  6727
    3604   3604      1      1      0      1   6821  6921  6926  6826  6822  6922  6927  6827
    3605   3605      1      1      0      1   6921  7021  7026  6926  6922  7022  7027  6927
    3606   3606      1      1      0      1   7021  7121  7126  7026  7022  7122  7127  7027
    3607   3607      1      1      0      1   7121  7221  7226  7126  7122  7222  7227  7127
    3608   3608      1      1      0      1   7221  7321  7326  7226  7222  7322  7327  7227
    3609   3609      1      1      0      1   7321  7421  7426  7326  7322  7422  7427  7327
    3610   3610      1      1      0      1   7421  7521  7526  7426  7422  7522  7527  7427
    3611   3611      1      1      0      1   7521  7621  7626  7526  7522  7622  7627  7527
    3612   3612      1      1      0      1   7621  3496  3491  7626  7622  3497  3492  7627
    3613   3613      1      1      0      1   3321  5726  5731  3326  3322  5727  5732  3327
    3614   3614      1      1      0      1   5726  5826  5831  5731  5727  5827  5832  5732
    3615   3615      1      1      0      1   5826  5926  5931  5831  5827  5927  5932  5832
    3616   3616      1      1      0      1   5926  6026  6031  5931  5927  6027  6032  5932
    3617   3617      1      1      0      1   6026  6126  6131  6031  6027  6127  6132  6032
    3618   3618      1      1      0      1   6126  6226  6231  6131  6127  6227  6232  6132
    3619   3619      1      1      0      1   6226  6326  6331  6231  6227  6327  6332  6232
 
    ELEM    MAT    TYP    REL    ESY    SEC        NODES
 
    3620   3620      1      1      0      1   6326  6426  6431  6331  6327  6427  6432  6332
    3621   3621      1      1      0      1   6426  6526  6531  6431  6427  6527  6532  6432
    3622   3622      1      1      0      1   6526  6626  6631  6531  6527  6627  6632  6532
    3623   3623      1      1      0      1   6626  6726  6731  6631  6627  6727  6732  6632
    3624   3624      1      1      0      1   6726  6826  6831  6731  6727  6827  6832  6732
    3625   3625      1      1      0      1   6826  6926  6931  6831  6827  6927  6932  6832
    3626   3626      1      1      0      1   6926  7026  7031  6931  6927  7027  7032  6932
    3627   3627      1      1      0      1   7026  7126  7131  7031  7027  7127  7132  7032
    3628   3628      1      1      0      1   7126  7226  7231  7131  7127  7227  7232  7132
    3629   3629      1      1      0      1   7226  7326  7331  7231  7227  7327  7332  7232
    3630   3630      1      1      0      1   7326  7426  7431  7331  7327  7427  7432  7332
    3631   3631      1      1      0      1   7426  7526  7531  7431  7427  7527  7532  7432
    3632   3632      1      1      0      1   7526  7626  7631  7531  7527  7627  7632  7532
    3634   3634      1      1      0      1   3326  5731  5736  3331  3327  5732  5737  3332
    3635   3635      1      1      0      1   5731  5831  5836  5736  5732  5832  5837  5737
    3636   3636      1      1      0      1   5831  5931  5936  5836  5832  5932  5937  5837
    3637   3637      1      1      0      1   5931  6031  6036  5936  5932  6032  6037  5937
    3638   3638      1      1      0      1   6031  6131  6136  6036  6032  6132  6137  6037
    3639   3639      1      1      0      1   6131  6231  6236  6136  6132  6232  6237  6137
    3640   3640      1      1      0      1   6231  6331  6336  6236  6232  6332  6337  6237
 
    ELEM    MAT    TYP    REL    ESY    SEC        NODES
 
    3641   3641      1      1      0      1   6331  6431  6436  6336  6332  6432  6437  6337
    3642   3642      1      1      0      1   6431  6531  6536  6436  6432  6532  6537  6437
    3643   3643      1      1      0      1   6531  6631  6636  6536  6532  6632  6637  6537
    3644   3644      1      1      0      1   6631  6731  6736  6636  6632  6732  6737  6637
    3645   3645      1      1      0      1   6731  6831  6836  6736  6732  6832  6837  6737
    3646   3646      1      1      0      1   6831  6931  6936  6836  6832  6932  6937  6837
    3647   3647      1      1      0      1   6931  7031  7036  6936  6932  7032  7037  6937
    3648   3648      1      1      0      1   7031  7131  7136  7036  7032  7132  7137  7037
    3649   3649      1      1      0      1   7131  7231  7236  7136  7132  7232  7237  7137
    3650   3650      1      1      0      1   7231  7331  7336  7236  7232  7332  7337  7237
    3651   3651      1      1      0      1   7331  7431  7436  7336  7332  7432  7437  7337
    3652   3652      1      1      0      1   7431  7531  7536  7436  7432  7532  7537  7437
    3653   3653      1      1      0      1   7531  7631  7636  7536  7532  7632  7637  7537
    3655   3655      1      1      0      1   3331  5736  5741  3336  3332  5737  5742  3337
    3656   3656      1      1      0      1   5736  5836  5841  5741  5737  5837  5842  5742
    3657   3657      1      1      0      1   5836  5936  5941  5841  5837  5937  5942  5842
    3658   3658      1      1      0      1   5936  6036  6041  5941  5937  6037  6042  5942
    3659   3659      1      1      0      1   6036  6136  6141  6041  6037  6137  6142  6042
    3660   3660      1      1      0      1   6136  6236  6241  6141  6137  6237  6242  6142
    3661   3661      1      1      0      1   6236  6336  6341  6241  6237  6337  6342  6242
 
    ELEM    MAT    TYP    REL    ESY    SEC        NODES
 
    3662   3662      1      1      0      1   6336  6436  6441  6341  6337  6437  6442  6342
    3663   3663      1      1      0      1   6436  6536  6541  6441  6437  6537  6542  6442
    3664   3664      1      1      0      1   6536  6636  6641  6541  6537  6637  6642  6542
    3665   3665      1      1      0      1   6636  6736  6741  6641  6637  6737  6742  6642
    3666   3666      1      1      0      1   6736  6836  6841  6741  6737  6837  6842  6742
    3667   3667      1      1      0      1   6836  6936  6941  6841  6837  6937  6942  6842
    3668   3668      1      1      0      1   6936  7036  7041  6941  6937  7037  7042  6942
    3669   3669      1      1      0      1   7036  7136  7141  7041  7037  7137  7142  7042
    3670   3670      1      1      0      1   7136  7236  7241  7141  7137  7237  7242  7142
    3671   3671      1      1      0      1   7236  7336  7341  7241  7237  7337  7342  7242
    3672   3672      1      1      0      1   7336  7436  7441  7341  7337  7437  7442  7342
    3673   3673      1      1      0      1   7436  7536  7541  7441  7437  7537  7542  7442
    3676   3676      1      1      0      1   3336  5741  5746  3341  3337  5742  5747  3342
    3677   3677      1      1      0      1   5741  5841  5846  5746  5742  5842  5847  5747
    3678   3678      1      1      0      1   5841  5941  5946  5846  5842  5942  5947  5847
    3679   3679      1      1      0      1   5941  6041  6046  5946  5942  6042  6047  5947
    3680   3680      1      1      0      1   6041  6141  6146  6046  6042  6142  6147  6047
    3681   3681      1      1      0      1   6141  6241  6246  6146  6142  6242  6247  6147
    3682   3682      1      1      0      1   6241  6341  6346  6246  6242  6342  6347  6247
    3683   3683      1      1      0      1   6341  6441  6446  6346  6342  6442  6447  6347
 
    ELEM    MAT    TYP    REL    ESY    SEC        NODES
 
    3684   3684      1      1      0      1   6441  6541  6546  6446  6442  6542  6547  6447
    3685   3685      1      1      0      1   6541  6641  6646  6546  6542  6642  6647  6547
    3686   3686      1      1      0      1   6641  6741  6746  6646  6642  6742  6747  6647
    3687   3687      1      1      0      1   6741  6841  6846  6746  6742  6842  6847  6747
    3688   3688      1      1      0      1   6841  6941  6946  6846  6842  6942  6947  6847
    3689   3689      1      1      0      1   6941  7041  7046  6946  6942  7042  7047  6947
    3690   3690      1      1      0      1   7041  7141  7146  7046  7042  7142  7147  7047
    3691   3691      1      1      0      1   7141  7241  7246  7146  7142  7242  7247  7147
    3692   3692      1      1      0      1   7241  7341  7346  7246  7242  7342  7347  7247
    3693   3693      1      1      0      1   7341  7441  7446  7346  7342  7442  7447  7347
    3697   3697      1      1      0      1   3341  5746  5751  3346  3342  5747  5752  3347
    3698   3698      1      1      0      1   5746  5846  5851  5751  5747  5847  5852  5752
    3699   3699      1      1      0      1   5846  5946  5951  5851  5847  5947  5952  5852
    3700   3700      1      1      0      1   5946  6046  6051  5951  5947  6047  6052  5952
    3701   3701      1      1      0      1   6046  6146  6151  6051  6047  6147  6152  6052
    3702   3702      1      1      0      1   6146  6246  6251  6151  6147  6247  6252  6152
    3703   3703      1      1      0      1   6246  6346  6351  6251  6247  6347  6352  6252
    3704   3704      1      1      0      1   6346  6446  6451  6351  6347  6447  6452  6352
    3705   3705      1      1      0      1   6446  6546  6551  6451  6447  6547  6552  6452
    3706   3706      1      1      0      1   6546  6646  6651  6551  6547  6647  6652  6552
 
    ELEM    MAT    TYP    REL    ESY    SEC        NODES
 
    3707   3707      1      1      0      1   6646  6746  6751  6651  6647  6747  6752  6652
    3708   3708      1      1      0      1   6746  6846  6851  6751  6747  6847  6852  6752
    3709   3709      1      1      0      1   6846  6946  6951  6851  6847  6947  6952  6852
    3710   3710      1      1      0      1   6946  7046  7051  6951  6947  7047  7052  6952
    3711   3711      1      1      0      1   7046  7146  7151  7051  7047  7147  7152  7052
    3712   3712      1      1      0      1   7146  7246  7251  7151  7147  7247  7252  7152
    3713   3713      1      1      0      1   7246  7346  7351  7251  7247  7347  7352  7252
    3714   3714      1      1      0      1   7346  7446  7451  7351  7347  7447  7452  7352
    3718   3718      1      1      0      1   3346  5751  5756  3351  3347  5752  5757  3352
    3719   3719      1      1      0      1   5751  5851  5856  5756  5752  5852  5857  5757
    3720   3720      1      1      0      1   5851  5951  5956  5856  5852  5952  5957  5857
    3721   3721      1      1      0      1   5951  6051  6056  5956  5952  6052  6057  5957
    3722   3722      1      1      0      1   6051  6151  6156  6056  6052  6152  6157  6057
    3723   3723      1      1      0      1   6151  6251  6256  6156  6152  6252  6257  6157
    3724   3724      1      1      0      1   6251  6351  6356  6256  6252  6352  6357  6257
    3725   3725      1      1      0      1   6351  6451  6456  6356  6352  6452  6457  6357
    3726   3726      1      1      0      1   6451  6551  6556  6456  6452  6552  6557  6457
    3727   3727      1      1      0      1   6551  6651  6656  6556  6552  6652  6657  6557
    3728   3728      1      1      0      1   6651  6751  6756  6656  6652  6752  6757  6657
    3729   3729      1      1      0      1   6751  6851  6856  6756  6752  6852  6857  6757
 
    ELEM    MAT    TYP    REL    ESY    SEC        NODES
 
    3730   3730      1      1      0      1   6851  6951  6956  6856  6852  6952  6957  6857
    3731   3731      1      1      0      1   6951  7051  7056  6956  6952  7052  7057  6957
    3732   3732      1      1      0      1   7051  7151  7156  7056  7052  7152  7157  7057
    3733   3733      1      1      0      1   7151  7251  7256  7156  7152  7252  7257  7157
    3743   3743      1      1      0      1   6056  6156  6161  6061  6057  6157  6162  6062
    3744   3744      1      1      0      1   6156  6256  6261  6161  6157  6257  6262  6162
    3745   3745      1      1      0      1   6256  6356  6361  6261  6257  6357  6362  6262
    3746   3746      1      1      0      1   6356  6456  6461  6361  6357  6457  6462  6362
    3747   3747      1      1      0      1   6456  6556  6561  6461  6457  6557  6562  6462
    3748   3748      1      1      0      1   6556  6656  6661  6561  6557  6657  6662  6562
    3749   3749      1      1      0      1   6656  6756  6761  6661  6657  6757  6762  6662
    3750   3750      1      1      0      1   6756  6856  6861  6761  6757  6857  6862  6762
    3751   3751      1      1      0      1   6856  6956  6961  6861  6857  6957  6962  6862
    3752   3752      1      1      0      1   6956  7056  7061  6961  6957  7057  7062  6962
    3970   3970      1      1      0      1   3302  3512  5712  3307  3303  3513  5713  3308
    3971   3971      1      1      0      1   3512  3517  5812  5712  3513  3518  5813  5713
    3972   3972      1      1      0      1   3517  3522  5912  5812  3518  3523  5913  5813
    3973   3973      1      1      0      1   3522  3527  6012  5912  3523  3528  6013  5913
    3974   3974      1      1      0      1   3527  3532  6112  6012  3528  3533  6113  6013
    3975   3975      1      1      0      1   3532  3537  6212  6112  3533  3538  6213  6113
 
    ELEM    MAT    TYP    REL    ESY    SEC        NODES
 
    3976   3976      1      1      0      1   3537  3542  6312  6212  3538  3543  6313  6213
    3977   3977      1      1      0      1   3542  3547  6412  6312  3543  3548  6413  6313
    3978   3978      1      1      0      1   3547  3552  6512  6412  3548  3553  6513  6413
    3979   3979      1      1      0      1   3552  3557  6612  6512  3553  3558  6613  6513
    3980   3980      1      1      0      1   3557  3562  6712  6612  3558  3563  6713  6613
    3981   3981      1      1      0      1   3562  3567  6812  6712  3563  3568  6813  6713
    3982   3982      1      1      0      1   3567  3572  6912  6812  3568  3573  6913  6813
    3983   3983      1      1      0      1   3572  3577  7012  6912  3573  3578  7013  6913
    3984   3984      1      1      0      1   3577  3582  7112  7012  3578  3583  7113  7013
    3985   3985      1      1      0      1   3582  3587  7212  7112  3583  3588  7213  7113
    3986   3986      1      1      0      1   3587  3592  7312  7212  3588  3593  7313  7213
    3987   3987      1      1      0      1   3592  3597  7412  7312  3593  3598  7413  7313
    3988   3988      1      1      0      1   3597  3602  7512  7412  3598  3603  7513  7413
    3989   3989      1      1      0      1   3602  3607  7612  7512  3603  3608  7613  7513
    3990   3990      1      1      0      1   3607  3407  3507  7612  3608  3408  3508  7613
    3991   3991      1      1      0      1   3307  5712  5717  3312  3308  5713  5718  3313
    3992   3992      1      1      0      1   5712  5812  5817  5717  5713  5813  5818  5718
    3993   3993      1      1      0      1   5812  5912  5917  5817  5813  5913  5918  5818
    3994   3994      1      1      0      1   5912  6012  6017  5917  5913  6013  6018  5918
    3995   3995      1      1      0      1   6012  6112  6117  6017  6013  6113  6118  6018
 
    ELEM    MAT    TYP    REL    ESY    SEC        NODES
 
    3996   3996      1      1      0      1   6112  6212  6217  6117  6113  6213  6218  6118
    3997   3997      1      1      0      1   6212  6312  6317  6217  6213  6313  6318  6218
    3998   3998      1      1      0      1   6312  6412  6417  6317  6313  6413  6418  6318
    3999   3999      1      1      0      1   6412  6512  6517  6417  6413  6513  6518  6418
    4000   4000      1      1      0      1   6512  6612  6617  6517  6513  6613  6618  6518
    4001   4001      1      1      0      1   6612  6712  6717  6617  6613  6713  6718  6618
    4002   4002      1      1      0      1   6712  6812  6817  6717  6713  6813  6818  6718
    4003   4003      1      1      0      1   6812  6912  6917  6817  6813  6913  6918  6818
    4004   4004      1      1      0      1   6912  7012  7017  6917  6913  7013  7018  6918
    4005   4005      1      1      0      1   7012  7112  7117  7017  7013  7113  7118  7018
    4006   4006      1      1      0      1   7112  7212  7217  7117  7113  7213  7218  7118
    4007   4007      1      1      0      1   7212  7312  7317  7217  7213  7313  7318  7218
    4008   4008      1      1      0      1   7312  7412  7417  7317  7313  7413  7418  7318
    4009   4009      1      1      0      1   7412  7512  7517  7417  7413  7513  7518  7418
    4010   4010      1      1      0      1   7512  7612  7617  7517  7513  7613  7618  7518
    4012   4012      1      1      0      1   3312  5717  5722  3317  3313  5718  5723  3318
    4013   4013      1      1      0      1   5717  5817  5822  5722  5718  5818  5823  5723
    4014   4014      1      1      0      1   5817  5917  5922  5822  5818  5918  5923  5823
    4015   4015      1      1      0      1   5917  6017  6022  5922  5918  6018  6023  5923
    4016   4016      1      1      0      1   6017  6117  6122  6022  6018  6118  6123  6023
 
    ELEM    MAT    TYP    REL    ESY    SEC        NODES
 
    4017   4017      1      1      0      1   6117  6217  6222  6122  6118  6218  6223  6123
    4018   4018      1      1      0      1   6217  6317  6322  6222  6218  6318  6323  6223
    4019   4019      1      1      0      1   6317  6417  6422  6322  6318  6418  6423  6323
    4020   4020      1      1      0      1   6417  6517  6522  6422  6418  6518  6523  6423
    4021   4021      1      1      0      1   6517  6617  6622  6522  6518  6618  6623  6523
    4022   4022      1      1      0      1   6617  6717  6722  6622  6618  6718  6723  6623
    4023   4023      1      1      0      1   6717  6817  6822  6722  6718  6818  6823  6723
    4024   4024      1      1      0      1   6817  6917  6922  6822  6818  6918  6923  6823
    4025   4025      1      1      0      1   6917  7017  7022  6922  6918  7018  7023  6923
    4026   4026      1      1      0      1   7017  7117  7122  7022  7018  7118  7123  7023
    4027   4027      1      1      0      1   7117  7217  7222  7122  7118  7218  7223  7123
    4028   4028      1      1      0      1   7217  7317  7322  7222  7218  7318  7323  7223
    4029   4029      1      1      0      1   7317  7417  7422  7322  7318  7418  7423  7323
    4030   4030      1      1      0      1   7417  7517  7522  7422  7418  7518  7523  7423
    4031   4031      1      1      0      1   7517  7617  7622  7522  7518  7618  7623  7523
    4033   4033      1      1      0      1   3317  5722  5727  3322  3318  5723  5728  3323
    4034   4034      1      1      0      1   5722  5822  5827  5727  5723  5823  5828  5728
    4035   4035      1      1      0      1   5822  5922  5927  5827  5823  5923  5928  5828
    4036   4036      1      1      0      1   5922  6022  6027  5927  5923  6023  6028  5928
    4037   4037      1      1      0      1   6022  6122  6127  6027  6023  6123  6128  6028
 
    ELEM    MAT    TYP    REL    ESY    SEC        NODES
 
    4038   4038      1      1      0      1   6122  6222  6227  6127  6123  6223  6228  6128
    4039   4039      1      1      0      1   6222  6322  6327  6227  6223  6323  6328  6228
    4040   4040      1      1      0      1   6322  6422  6427  6327  6323  6423  6428  6328
    4041   4041      1      1      0      1   6422  6522  6527  6427  6423  6523  6528  6428
    4042   4042      1      1      0      1   6522  6622  6627  6527  6523  6623  6628  6528
    4043   4043      1      1      0      1   6622  6722  6727  6627  6623  6723  6728  6628
    4044   4044      1      1      0      1   6722  6822  6827  6727  6723  6823  6828  6728
    4045   4045      1      1      0      1   6822  6922  6927  6827  6823  6923  6928  6828
    4046   4046      1      1      0      1   6922  7022  7027  6927  6923  7023  7028  6928
[...]
   12598  12598      1      1      0      1  16871 16971 16976 16876 16872 16972 16977 16877
 
    ELEM    MAT    TYP    REL    ESY    SEC        NODES
 
   12599  12599      1      1      0      1  16971 17071 17076 16976 16972 17072 17077 16977
   12600  12600      1      1      0      1  17071 12866 12861 17076 17072 12867 12862 17077
   12614  12614      1      1      0      1  16376 16476 16481 16381 16377 16477 16482 16382
   12615  12615      1      1      0      1  16476 16576 16581 16481 16477 16577 16582 16482
   12616  12616      1      1      0      1  16576 16676 16681 16581 16577 16677 16682 16582
   12617  12617      1      1      0      1  16676 16776 16781 16681 16677 16777 16782 16682
   12618  12618      1      1      0      1  16776 16876 16881 16781 16777 16877 16882 16782
   12619  12619      1      1      0      1  16876 16976 16981 16881 16877 16977 16982 16882
   12620  12620      1      1      0      1  16976 17076 17081 16981 16977 17077 17082 16982
   12621  12621      1      1      0      1  17076 12861 12856 17081 17077 12862 12857 17082
   12635  12635      1      1      0      1  16381 16481 16486 16386 16382 16482 16487 16387
   12636  12636      1      1      0      1  16481 16581 16586 16486 16482 16582 16587 16487
   12637  12637      1      1      0      1  16581 16681 16686 16586 16582 16682 16687 16587
   12638  12638      1      1      0      1  16681 16781 16786 16686 16682 16782 16787 16687
   12639  12639      1      1      0      1  16781 16881 16886 16786 16782 16882 16887 16787
   12640  12640      1      1      0      1  16881 16981 16986 16886 16882 16982 16987 16887
   12641  12641      1      1      0      1  16981 17081 17086 16986 16982 17082 17087 16987
   12642  12642      1      1      0      1  17081 12856 12851 17086 17082 12857 12852 17087
   12656  12656      1      1      0      1  16386 16486 16491 16391 16387 16487 16492 16392
   12657  12657      1      1      0      1  16486 16586 16591 16491 16487 16587 16592 16492
 
    ELEM    MAT    TYP    REL    ESY    SEC        NODES
 
   12658  12658      1      1      0      1  16586 16686 16691 16591 16587 16687 16692 16592
   12659  12659      1      1      0      1  16686 16786 16791 16691 16687 16787 16792 16692
   12660  12660      1      1      0      1  16786 16886 16891 16791 16787 16887 16892 16792
   12661  12661      1      1      0      1  16886 16986 16991 16891 16887 16987 16992 16892
   12662  12662      1      1      0      1  16986 17086 17091 16991 16987 17087 17092 16992
   12663  12663      1      1      0      1  17086 12851 12846 17091 17087 12852 12847 17092
   12677  12677      1      1      0      1  16391 16491 16496 16396 16392 16492 16497 16397
   12678  12678      1      1      0      1  16491 16591 16596 16496 16492 16592 16597 16497
   12679  12679      1      1      0      1  16591 16691 16696 16596 16592 16692 16697 16597
   12680  12680      1      1      0      1  16691 16791 16796 16696 16692 16792 16797 16697
   12681  12681      1      1      0      1  16791 16891 16896 16796 16792 16892 16897 16797
   12682  12682      1      1      0      1  16891 16991 16996 16896 16892 16992 16997 16897
   12683  12683      1      1      0      1  16991 17091 17096 16996 16992 17092 17097 16997
   12684  12684      1      1      0      1  17091 12846 12841 17096 17092 12847 12842 17097
   12698  12698      1      1      0      1  16396 16496 16501 16401 16397 16497 16502 16402
   12699  12699      1      1      0      1  16496 16596 16601 16501 16497 16597 16602 16502
   12700  12700      1      1      0      1  16596 16696 16701 16601 16597 16697 16702 16602
   12701  12701      1      1      0      1  16696 16796 16801 16701 16697 16797 16802 16702
   12702  12702      1      1      0      1  16796 16896 16901 16801 16797 16897 16902 16802
   12703  12703      1      1      0      1  16896 16996 17001 16901 16897 16997 17002 16902
 
    ELEM    MAT    TYP    REL    ESY    SEC        NODES
 
   12704  12704      1      1      0      1  16996 17096 17101 17001 16997 17097 17102 17002
   12705  12705      1      1      0      1  17096 12841 12836 17101 17097 12842 12837 17102
   12719  12719      1      1      0      1  16401 16501 16506 16406 16402 16502 16507 16407
   12720  12720      1      1      0      1  16501 16601 16606 16506 16502 16602 16607 16507
   12721  12721      1      1      0      1  16601 16701 16706 16606 16602 16702 16707 16607
   12722  12722      1      1      0      1  16701 16801 16806 16706 16702 16802 16807 16707
   12723  12723      1      1      0      1  16801 16901 16906 16806 16802 16902 16907 16807
   12724  12724      1      1      0      1  16901 17001 17006 16906 16902 17002 17007 16907
   12725  12725      1      1      0      1  17001 17101 17106 17006 17002 17102 17107 17007
   12726  12726      1      1      0      1  17101 12836 12831 17106 17102 12837 12832 17107
   12740  12740      1      1      0      1  16406 16506 16511 16411 16407 16507 16512 16412
   12741  12741      1      1      0      1  16506 16606 16611 16511 16507 16607 16612 16512
   12742  12742      1      1      0      1  16606 16706 16711 16611 16607 16707 16712 16612
   12743  12743      1      1      0      1  16706 16806 16811 16711 16707 16807 16812 16712
   12744  12744      1      1      0      1  16806 16906 16911 16811 16807 16907 16912 16812
   12745  12745      1      1      0      1  16906 17006 17011 16911 16907 17007 17012 16912
   12746  12746      1      1      0      1  17006 17106 17111 17011 17007 17107 17112 17012
   12747  12747      1      1      0      1  17106 12831 12826 17111 17107 12832 12827 17112
   12761  12761      1      1      0      1  16411 16511 16516 16416 16412 16512 16517 16417
   12762  12762      1      1      0      1  16511 16611 16616 16516 16512 16612 16617 16517
 
    ELEM    MAT    TYP    REL    ESY    SEC        NODES
 
   12763  12763      1      1      0      1  16611 16711 16716 16616 16612 16712 16717 16617
   12764  12764      1      1      0      1  16711 16811 16816 16716 16712 16812 16817 16717
   12765  12765      1      1      0      1  16811 16911 16916 16816 16812 16912 16917 16817
   12766  12766      1      1      0      1  16911 17011 17016 16916 16912 17012 17017 16917
   12767  12767      1      1      0      1  17011 17111 17116 17016 17012 17112 17117 17017
   12768  12768      1      1      0      1  17111 12826 12821 17116 17112 12827 12822 17117
   12783  12783      1      1      0      1  16516 16616  3333  3338 16517 16617  3334  3339
   12784  12784      1      1      0      1  16616 16716  3328  3333 16617 16717  3329  3334
   12785  12785      1      1      0      1  16716 16816  3323  3328 16717 16817  3324  3329
   12786  12786      1      1      0      1  16816 16916  3318  3323 16817 16917  3319  3324
   12787  12787      1      1      0      1  16916 17016  3313  3318 16917 17017  3314  3319
   12788  12788      1      1      0      1  17016 17116  3308  3313 17017 17117  3309  3314
   12789  12789      1      1      0      1  17116 12821  3303  3308 17117 12822  3304  3309
   12873  12873      1      1      0      1  17032 12907 12902 17037 11580 11195 11194 11581
   12892  12892      1      1      0      1  16837 16937 16942 16842 11541 11561 11562 11542
   12893  12893      1      1      0      1  16937 17037 17042 16942 11561 11581 11582 11562
   12894  12894      1      1      0      1  17037 12902 12897 17042 11581 11194 11193 11582
   12912  12912      1      1      0      1  16742 16842 16847 16747 11522 11542 11543 11523
   12913  12913      1      1      0      1  16842 16942 16947 16847 11542 11562 11563 11543
   12914  12914      1      1      0      1  16942 17042 17047 16947 11562 11582 11583 11563
 
    ELEM    MAT    TYP    REL    ESY    SEC        NODES
 
   12915  12915      1      1      0      1  17042 12897 12892 17047 11582 11193 11192 11583
   12932  12932      1      1      0      1  16647 16747 16752 16652 11503 11523 11524 11504
   12933  12933      1      1      0      1  16747 16847 16852 16752 11523 11543 11544 11524
   12934  12934      1      1      0      1  16847 16947 16952 16852 11543 11563 11564 11544
   12935  12935      1      1      0      1  16947 17047 17052 16952 11563 11583 11584 11564
   12936  12936      1      1      0      1  17047 12892 12887 17052 11583 11192 11191 11584
   12953  12953      1      1      0      1  16652 16752 16757 16657 11504 11524 11525 11505
   12954  12954      1      1      0      1  16752 16852 16857 16757 11524 11544 11545 11525
   12955  12955      1      1      0      1  16852 16952 16957 16857 11544 11564 11565 11545
   12956  12956      1      1      0      1  16952 17052 17057 16957 11564 11584 11585 11565
   12957  12957      1      1      0      1  17052 12887 12882 17057 11584 11191 11190 11585
   12973  12973      1      1      0      1  16557 16657 16662 16562 11485 11505 11506 11486
   12974  12974      1      1      0      1  16657 16757 16762 16662 11505 11525 11526 11506
   12975  12975      1      1      0      1  16757 16857 16862 16762 11525 11545 11546 11526
   12976  12976      1      1      0      1  16857 16957 16962 16862 11545 11565 11566 11546
   12977  12977      1      1      0      1  16957 17057 17062 16962 11565 11585 11586 11566
   12978  12978      1      1      0      1  17057 12882 12877 17062 11585 11190 11189 11586
   12994  12994      1      1      0      1  16562 16662 16667 16567 11486 11506 11507 11487
   12995  12995      1      1      0      1  16662 16762 16767 16667 11506 11526 11527 11507
   12996  12996      1      1      0      1  16762 16862 16867 16767 11526 11546 11547 11527
 
    ELEM    MAT    TYP    REL    ESY    SEC        NODES
 
   12997  12997      1      1      0      1  16862 16962 16967 16867 11546 11566 11567 11547
   12998  12998      1      1      0      1  16962 17062 17067 16967 11566 11586 11587 11567
   12999  12999      1      1      0      1  17062 12877 12872 17067 11586 11189 11188 11587
   13015  13015      1      1      0      1  16567 16667 16672 16572 11487 11507 11508 11488
   13016  13016      1      1      0      1  16667 16767 16772 16672 11507 11527 11528 11508
   13017  13017      1      1      0      1  16767 16867 16872 16772 11527 11547 11548 11528
   13018  13018      1      1      0      1  16867 16967 16972 16872 11547 11567 11568 11548
   13019  13019      1      1      0      1  16967 17067 17072 16972 11567 11587 11588 11568
   13020  13020      1      1      0      1  17067 12872 12867 17072 11587 11188 11187 11588
   13035  13035      1      1      0      1  16472 16572 16577 16477 11468 11488 11489 11469
   13036  13036      1      1      0      1  16572 16672 16677 16577 11488 11508 11509 11489
   13037  13037      1      1      0      1  16672 16772 16777 16677 11508 11528 11529 11509
   13038  13038      1      1      0      1  16772 16872 16877 16777 11528 11548 11549 11529
   13039  13039      1      1      0      1  16872 16972 16977 16877 11548 11568 11569 11549
   13040  13040      1      1      0      1  16972 17072 17077 16977 11568 11588 11589 11569
   13041  13041      1      1      0      1  17072 12867 12862 17077 11588 11187 11186 11589
   13056  13056      1      1      0      1  16477 16577 16582 16482 11469 11489 11490 11470
   13057  13057      1      1      0      1  16577 16677 16682 16582 11489 11509 11510 11490
   13058  13058      1      1      0      1  16677 16777 16782 16682 11509 11529 11530 11510
   13059  13059      1      1      0      1  16777 16877 16882 16782 11529 11549 11550 11530
 
    ELEM    MAT    TYP    REL    ESY    SEC        NODES
 
   13060  13060      1      1      0      1  16877 16977 16982 16882 11549 11569 11570 11550
   13061  13061      1      1      0      1  16977 17077 17082 16982 11569 11589 11590 11570
   13062  13062      1      1      0      1  17077 12862 12857 17082 11589 11186 11185 11590
   13077  13077      1      1      0      1  16482 16582 16587 16487 11470 11490 11491 11471
   13078  13078      1      1      0      1  16582 16682 16687 16587 11490 11510 11511 11491
   13079  13079      1      1      0      1  16682 16782 16787 16687 11510 11530 11531 11511
   13080  13080      1      1      0      1  16782 16882 16887 16787 11530 11550 11551 11531
   13081  13081      1      1      0      1  16882 16982 16987 16887 11550 11570 11571 11551
   13082  13082      1      1      0      1  16982 17082 17087 16987 11570 11590 11591 11571
   13083  13083      1      1      0      1  17082 12857 12852 17087 11590 11185 11184 11591
   13098  13098      1      1      0      1  16487 16587 16592 16492 11471 11491 11492 11472
   13099  13099      1      1      0      1  16587 16687 16692 16592 11491 11511 11512 11492
   13100  13100      1      1      0      1  16687 16787 16792 16692 11511 11531 11532 11512
   13101  13101      1      1      0      1  16787 16887 16892 16792 11531 11551 11552 11532
   13102  13102      1      1      0      1  16887 16987 16992 16892 11551 11571 11572 11552
   13103  13103      1      1      0      1  16987 17087 17092 16992 11571 11591 11592 11572
   13104  13104      1      1      0      1  17087 12852 12847 17092 11591 11184 11183 11592
   13119  13119      1      1      0      1  16492 16592 16597 16497 11472 11492 11493 11473
   13120  13120      1      1      0      1  16592 16692 16697 16597 11492 11512 11513 11493
   13121  13121      1      1      0      1  16692 16792 16797 16697 11512 11532 11533 11513
 
    ELEM    MAT    TYP    REL    ESY    SEC        NODES
 
   13122  13122      1      1      0      1  16792 16892 16897 16797 11532 11552 11553 11533
   13123  13123      1      1      0      1  16892 16992 16997 16897 11552 11572 11573 11553
   13124  13124      1      1      0      1  16992 17092 17097 16997 11572 11592 11593 11573
   13125  13125      1      1      0      1  17092 12847 12842 17097 11592 11183 11182 11593
   13140  13140      1      1      0      1  16497 16597 16602 16502 11473 11493 11494 11474
   13141  13141      1      1      0      1  16597 16697 16702 16602 11493 11513 11514 11494
   13142  13142      1      1      0      1  16697 16797 16802 16702 11513 11533 11534 11514
   13143  13143      1      1      0      1  16797 16897 16902 16802 11533 11553 11554 11534
   13144  13144      1      1      0      1  16897 16997 17002 16902 11553 11573 11574 11554
   13145  13145      1      1      0      1  16997 17097 17102 17002 11573 11593 11594 11574
   13146  13146      1      1      0      1  17097 12842 12837 17102 11593 11182 11181 11594
   13161  13161      1      1      0      1  16502 16602 16607 16507 11474 11494 11495 11475
   13162  13162      1      1      0      1  16602 16702 16707 16607 11494 11514 11515 11495
   13163  13163      1      1      0      1  16702 16802 16807 16707 11514 11534 11535 11515
   13164  13164      1      1      0      1  16802 16902 16907 16807 11534 11554 11555 11535
   13165  13165      1      1      0      1  16902 17002 17007 16907 11554 11574 11575 11555
   13166  13166      1      1      0      1  17002 17102 17107 17007 11574 11594 11595 11575
   13167  13167      1      1      0      1  17102 12837 12832 17107 11594 11181 11180 11595
   13182  13182      1      1      0      1  16507 16607 16612 16512 11475 11495 11496 11476
   13183  13183      1      1      0      1  16607 16707 16712 16612 11495 11515 11516 11496
 
    ELEM    MAT    TYP    REL    ESY    SEC        NODES
 
   13184  13184      1      1      0      1  16707 16807 16812 16712 11515 11535 11536 11516
   13185  13185      1      1      0      1  16807 16907 16912 16812 11535 11555 11556 11536
   13186  13186      1      1      0      1  16907 17007 17012 16912 11555 11575 11576 11556
   13187  13187      1      1      0      1  17007 17107 17112 17012 11575 11595 11596 11576
   13188  13188      1      1      0      1  17107 12832 12827 17112 11595 11180 11179 11596
   13203  13203      1      1      0      1  16512 16612 16617 16517 11476 11496 11497 11477
   13204  13204      1      1      0      1  16612 16712 16717 16617 11496 11516 11517 11497
   13205  13205      1      1      0      1  16712 16812 16817 16717 11516 11536 11537 11517
   13206  13206      1      1      0      1  16812 16912 16917 16817 11536 11556 11557 11537
   13207  13207      1      1      0      1  16912 17012 17017 16917 11556 11576 11577 11557
   13208  13208      1      1      0      1  17012 17112 17117 17017 11576 11596 11597 11577
   13209  13209      1      1      0      1  17112 12827 12822 17117 11596 11179 11178 11597
   13225  13225      1      1      0      1  16617 16717  3329  3334 11497 11517  1415  1416
   13226  13226      1      1      0      1  16717 16817  3324  3329 11517 11537  1414  1415
   13227  13227      1      1      0      1  16817 16917  3319  3324 11537 11557  1413  1414
   13228  13228      1      1      0      1  16917 17017  3314  3319 11557 11577  1412  1413
   13229  13229      1      1      0      1  17017 17117  3309  3314 11577 11597  1411  1412
   13230  13230      1      1      0      1  17117 12822  3304  3309 11597 11178  1410  1411
   13249  13249      1      1      0      1   9811  9812 10635 10636 13103 13108 18918 18818
   13250  13250      1      1      0      1   9812  9813 10634 10635 13108 13113 19018 18918
 
    ELEM    MAT    TYP    REL    ESY    SEC        NODES
 
   13251  13251      1      1      0      1   9813  9793  9833 10634 13113 12813 13013 19018
   13270  13270      1      1      0      1  10636 10635 10615 10616 18818 18918 18923 18823
   13271  13271      1      1      0      1  10635 10634 10614 10615 18918 19018 19023 18923
   13272  13272      1      1      0      1  10634  9833  9832 10614 19018 13013 13008 19023
   13292  13292      1      1      0      1  10615 10614 10594 10595 18923 19023 19028 18928
   13293  13293      1      1      0      1  10614  9832  9831 10594 19023 13008 13003 19028
   13313  13313      1      1      0      1  10595 10594 10574 10575 18928 19028 19033 18933
   13314  13314      1      1      0      1  10594  9831  9830 10574 19028 13003 12998 19033
   13334  13334      1      1      0      1  10575 10574 10554 10555 18933 19033 19038 18938
   13335  13335      1      1      0      1  10574  9830  9829 10554 19033 12998 12993 19038
   13356  13356      1      1      0      1  10554  9829  9828 10534 19038 12993 12988 19043
   13377  13377      1      1      0      1  10534  9828  9827 10514 19043 12988 12983 19048
   13398  13398      1      1      0      1  10514  9827  9826 10494 19048 12983 12978 19053
   13690  13690      1      1      0      1  13103 13108 18918 18818 13104 13109 18919 18819
   13691  13691      1      1      0      1  13108 13113 19018 18918 13109 13114 19019 18919
   13692  13692      1      1      0      1  13113 12813 13013 19018 13114 12814 13014 19019
   13712  13712      1      1      0      1  18918 19018 19023 18923 18919 19019 19024 18924
   13713  13713      1      1      0      1  19018 13013 13008 19023 19019 13014 13009 19024
   13733  13733      1      1      0      1  18923 19023 19028 18928 18924 19024 19029 18929
   13734  13734      1      1      0      1  19023 13008 13003 19028 19024 13009 13004 19029
 
    ELEM    MAT    TYP    REL    ESY    SEC        NODES
 
   13755  13755      1      1      0      1  19028 13003 12998 19033 19029 13004 12999 19034
   13776  13776      1      1      0      1  19033 12998 12993 19038 19034 12999 12994 19039
   14132  14132      1      1      0      1  13109 13114 19019 18919 13110 13115 19020 18920
   14133  14133      1      1      0      1  13114 12814 13014 19019 13115 12815 13015 19020
   14154  14154      1      1      0      1  19019 13014 13009 19024 19020 13015 13010 19025
   14175  14175      1      1      0      1  19024 13009 13004 19029 19025 13010 13005 19030

