
 LIST ALL SELECTED ELEMENTS.  (LIST NODES)

 *** ANSYS - ENGINEERING ANALYSIS SYSTEM  RELEASE Release 16.1     16.1     ***
 ANSYS Academic Research                           
 00210476  VERSION=WINDOWS x64   19:21:51  SEP 08, 2019 CP=      9.688

                                                                               


 
    ELEM    MAT    TYP    REL    ESY    SEC        NODES
 
       1      1      1      1      0      1     86   136   407    85  2047  2251  2443  2043
       2      2      1      1      0      1    136   137   406   407  2251  2255  2507  2443
       3      3      1      1      0      1    137   138   405   406  2255  2259  2571  2507
       4      4      1      1      0      1    138   139   404   405  2259  2263  2635  2571
       5      5      1      1      0      1    139   140   403   404  2263  2267  2699  2635
       6      6      1      1      0      1    140   141   402   403  2267  2271  2763  2699
       7      7      1      1      0      1    141   142   401   402  2271  2275  2827  2763
       8      8      1      1      0      1    142   143   400   401  2275  2279  2891  2827
       9      9      1      1      0      1    143   144   399   400  2279  2283  2955  2891
      10     10      1      1      0      1    144   145   398   399  2283  2287  3019  2955
      11     11      1      1      0      1    145   146   397   398  2287  2291  3083  3019
      12     12      1      1      0      1    146   147   396   397  2291  2295  3147  3083
      13     13      1      1      0      1    147   148   395   396  2295  2299  3211  3147
      14     14      1      1      0      1    148   149   394   395  2299  2303  3275  3211
      15     15      1      1      0      1    149   150   393   394  2303  2307  3339  3275
      16     16      1      1      0      1    150   151   392   393  2307  2311  3403  3339
      17     17      1      1      0      1    151   103   119   392  2311  2247  2439  3403
      18     18      1      1      0      1     85   407   391    84  2043  2443  2447  2039
      19     19      1      1      0      1    407   406   390   391  2443  2507  2511  2447
      20     20      1      1      0      1    406   405   389   390  2507  2571  2575  2511
 
    ELEM    MAT    TYP    REL    ESY    SEC        NODES
 
      21     21      1      1      0      1    405   404   388   389  2571  2635  2639  2575
      22     22      1      1      0      1    404   403   387   388  2635  2699  2703  2639
      23     23      1      1      0      1    403   402   386   387  2699  2763  2767  2703
      24     24      1      1      0      1    402   401   385   386  2763  2827  2831  2767
      25     25      1      1      0      1    401   400   384   385  2827  2891  2895  2831
      26     26      1      1      0      1    400   399   383   384  2891  2955  2959  2895
      27     27      1      1      0      1    399   398   382   383  2955  3019  3023  2959
      28     28      1      1      0      1    398   397   381   382  3019  3083  3087  3023
      29     29      1      1      0      1    397   396   380   381  3083  3147  3151  3087
      30     30      1      1      0      1    396   395   379   380  3147  3211  3215  3151
      31     31      1      1      0      1    395   394   378   379  3211  3275  3279  3215
      32     32      1      1      0      1    394   393   377   378  3275  3339  3343  3279
      33     33      1      1      0      1    393   392   376   377  3339  3403  3407  3343
      34     34      1      1      0      1    392   119   118   376  3403  2439  2435  3407
      35     35      1      1      0      1     84   391   375    83  2039  2447  2451  2035
      36     36      1      1      0      1    391   390   374   375  2447  2511  2515  2451
      37     37      1      1      0      1    390   389   373   374  2511  2575  2579  2515
      38     38      1      1      0      1    389   388   372   373  2575  2639  2643  2579
      39     39      1      1      0      1    388   387   371   372  2639  2703  2707  2643
      40     40      1      1      0      1    387   386   370   371  2703  2767  2771  2707
 
    ELEM    MAT    TYP    REL    ESY    SEC        NODES
 
      41     41      1      1      0      1    386   385   369   370  2767  2831  2835  2771
      42     42      1      1      0      1    385   384   368   369  2831  2895  2899  2835
      43     43      1      1      0      1    384   383   367   368  2895  2959  2963  2899
      44     44      1      1      0      1    383   382   366   367  2959  3023  3027  2963
      45     45      1      1      0      1    382   381   365   366  3023  3087  3091  3027
      46     46      1      1      0      1    381   380   364   365  3087  3151  3155  3091
      47     47      1      1      0      1    380   379   363   364  3151  3215  3219  3155
      48     48      1      1      0      1    379   378   362   363  3215  3279  3283  3219
      49     49      1      1      0      1    378   377   361   362  3279  3343  3347  3283
      50     50      1      1      0      1    377   376   360   361  3343  3407  3411  3347
      51     51      1      1      0      1    376   118   117   360  3407  2435  2431  3411
      52     52      1      1      0      1     83   375   359    82  2035  2451  2455  2031
      53     53      1      1      0      1    375   374   358   359  2451  2515  2519  2455
      54     54      1      1      0      1    374   373   357   358  2515  2579  2583  2519
      55     55      1      1      0      1    373   372   356   357  2579  2643  2647  2583
      56     56      1      1      0      1    372   371   355   356  2643  2707  2711  2647
      57     57      1      1      0      1    371   370   354   355  2707  2771  2775  2711
      58     58      1      1      0      1    370   369   353   354  2771  2835  2839  2775
      59     59      1      1      0      1    369   368   352   353  2835  2899  2903  2839
      60     60      1      1      0      1    368   367   351   352  2899  2963  2967  2903
 
    ELEM    MAT    TYP    REL    ESY    SEC        NODES
 
      61     61      1      1      0      1    367   366   350   351  2963  3027  3031  2967
      62     62      1      1      0      1    366   365   349   350  3027  3091  3095  3031
      63     63      1      1      0      1    365   364   348   349  3091  3155  3159  3095
      64     64      1      1      0      1    364   363   347   348  3155  3219  3223  3159
      65     65      1      1      0      1    363   362   346   347  3219  3283  3287  3223
      66     66      1      1      0      1    362   361   345   346  3283  3347  3351  3287
      67     67      1      1      0      1    361   360   344   345  3347  3411  3415  3351
      68     68      1      1      0      1    360   117   116   344  3411  2431  2427  3415
      69     69      1      1      0      1     82   359   343    81  2031  2455  2459  2027
      70     70      1      1      0      1    359   358   342   343  2455  2519  2523  2459
      71     71      1      1      0      1    358   357   341   342  2519  2583  2587  2523
      72     72      1      1      0      1    357   356   340   341  2583  2647  2651  2587
      73     73      1      1      0      1    356   355   339   340  2647  2711  2715  2651
      74     74      1      1      0      1    355   354   338   339  2711  2775  2779  2715
      75     75      1      1      0      1    354   353   337   338  2775  2839  2843  2779
      76     76      1      1      0      1    353   352   336   337  2839  2903  2907  2843
      77     77      1      1      0      1    352   351   335   336  2903  2967  2971  2907
      78     78      1      1      0      1    351   350   334   335  2967  3031  3035  2971
      79     79      1      1      0      1    350   349   333   334  3031  3095  3099  3035
      80     80      1      1      0      1    349   348   332   333  3095  3159  3163  3099
 
    ELEM    MAT    TYP    REL    ESY    SEC        NODES
 
      81     81      1      1      0      1    348   347   331   332  3159  3223  3227  3163
      82     82      1      1      0      1    347   346   330   331  3223  3287  3291  3227
      83     83      1      1      0      1    346   345   329   330  3287  3351  3355  3291
      84     84      1      1      0      1    345   344   328   329  3351  3415  3419  3355
      85     85      1      1      0      1    344   116   115   328  3415  2427  2423  3419
      86     86      1      1      0      1     81   343   327    80  2027  2459  2463  2023
      87     87      1      1      0      1    343   342   326   327  2459  2523  2527  2463
      88     88      1      1      0      1    342   341   325   326  2523  2587  2591  2527
      89     89      1      1      0      1    341   340   324   325  2587  2651  2655  2591
      90     90      1      1      0      1    340   339   323   324  2651  2715  2719  2655
      91     91      1      1      0      1    339   338   322   323  2715  2779  2783  2719
      92     92      1      1      0      1    338   337   321   322  2779  2843  2847  2783
      93     93      1      1      0      1    337   336   320   321  2843  2907  2911  2847
      94     94      1      1      0      1    336   335   319   320  2907  2971  2975  2911
      95     95      1      1      0      1    335   334   318   319  2971  3035  3039  2975
      96     96      1      1      0      1    334   333   317   318  3035  3099  3103  3039
      97     97      1      1      0      1    333   332   316   317  3099  3163  3167  3103
      98     98      1      1      0      1    332   331   315   316  3163  3227  3231  3167
      99     99      1      1      0      1    331   330   314   315  3227  3291  3295  3231
     100    100      1      1      0      1    330   329   313   314  3291  3355  3359  3295
 
    ELEM    MAT    TYP    REL    ESY    SEC        NODES
 
     101    101      1      1      0      1    329   328   312   313  3355  3419  3423  3359
     102    102      1      1      0      1    328   115   114   312  3419  2423  2419  3423
     104    104      1      1      0      1    327   326   310   311  2463  2527  2531  2467
     105    105      1      1      0      1    326   325   309   310  2527  2591  2595  2531
     106    106      1      1      0      1    325   324   308   309  2591  2655  2659  2595
     107    107      1      1      0      1    324   323   307   308  2655  2719  2723  2659
     108    108      1      1      0      1    323   322   306   307  2719  2783  2787  2723
     109    109      1      1      0      1    322   321   305   306  2783  2847  2851  2787
     110    110      1      1      0      1    321   320   304   305  2847  2911  2915  2851
     111    111      1      1      0      1    320   319   303   304  2911  2975  2979  2915
     112    112      1      1      0      1    319   318   302   303  2975  3039  3043  2979
     113    113      1      1      0      1    318   317   301   302  3039  3103  3107  3043
     114    114      1      1      0      1    317   316   300   301  3103  3167  3171  3107
     115    115      1      1      0      1    316   315   299   300  3167  3231  3235  3171
     116    116      1      1      0      1    315   314   298   299  3231  3295  3299  3235
     117    117      1      1      0      1    314   313   297   298  3295  3359  3363  3299
     118    118      1      1      0      1    313   312   296   297  3359  3423  3427  3363
     119    119      1      1      0      1    312   114   113   296  3423  2419  2415  3427
     123    123      1      1      0      1    309   308   292   293  2595  2659  2663  2599
     124    124      1      1      0      1    308   307   291   292  2659  2723  2727  2663
 
    ELEM    MAT    TYP    REL    ESY    SEC        NODES
 
     125    125      1      1      0      1    307   306   290   291  2723  2787  2791  2727
     126    126      1      1      0      1    306   305   289   290  2787  2851  2855  2791
     127    127      1      1      0      1    305   304   288   289  2851  2915  2919  2855
     128    128      1      1      0      1    304   303   287   288  2915  2979  2983  2919
     129    129      1      1      0      1    303   302   286   287  2979  3043  3047  2983
     130    130      1      1      0      1    302   301   285   286  3043  3107  3111  3047
     131    131      1      1      0      1    301   300   284   285  3107  3171  3175  3111
     132    132      1      1      0      1    300   299   283   284  3171  3235  3239  3175
     133    133      1      1      0      1    299   298   282   283  3235  3299  3303  3239
     134    134      1      1      0      1    298   297   281   282  3299  3363  3367  3303
     135    135      1      1      0      1    297   296   280   281  3363  3427  3431  3367
     136    136      1      1      0      1    296   113   112   280  3427  2415  2411  3431
     143    143      1      1      0      1    290   289   273   274  2791  2855  2859  2795
     144    144      1      1      0      1    289   288   272   273  2855  2919  2923  2859
     145    145      1      1      0      1    288   287   271   272  2919  2983  2987  2923
     146    146      1      1      0      1    287   286   270   271  2983  3047  3051  2987
     147    147      1      1      0      1    286   285   269   270  3047  3111  3115  3051
     148    148      1      1      0      1    285   284   268   269  3111  3175  3179  3115
     149    149      1      1      0      1    284   283   267   268  3175  3239  3243  3179
     150    150      1      1      0      1    283   282   266   267  3239  3303  3307  3243
 
    ELEM    MAT    TYP    REL    ESY    SEC        NODES
 
     151    151      1      1      0      1    282   281   265   266  3303  3367  3371  3307
     152    152      1      1      0      1    281   280   264   265  3367  3431  3435  3371
     153    153      1      1      0      1    280   112   111   264  3431  2411  2407  3435
     290    290      1      1      0      1   2047  2251  2443  2043  2048  2252  2444  2044
     291    291      1      1      0      1   2251  2255  2507  2443  2252  2256  2508  2444
     292    292      1      1      0      1   2255  2259  2571  2507  2256  2260  2572  2508
     293    293      1      1      0      1   2259  2263  2635  2571  2260  2264  2636  2572
     294    294      1      1      0      1   2263  2267  2699  2635  2264  2268  2700  2636
     295    295      1      1      0      1   2267  2271  2763  2699  2268  2272  2764  2700
     296    296      1      1      0      1   2271  2275  2827  2763  2272  2276  2828  2764
     297    297      1      1      0      1   2275  2279  2891  2827  2276  2280  2892  2828
     298    298      1      1      0      1   2279  2283  2955  2891  2280  2284  2956  2892
     299    299      1      1      0      1   2283  2287  3019  2955  2284  2288  3020  2956
     300    300      1      1      0      1   2287  2291  3083  3019  2288  2292  3084  3020
     301    301      1      1      0      1   2291  2295  3147  3083  2292  2296  3148  3084
     302    302      1      1      0      1   2295  2299  3211  3147  2296  2300  3212  3148
     303    303      1      1      0      1   2299  2303  3275  3211  2300  2304  3276  3212
     304    304      1      1      0      1   2303  2307  3339  3275  2304  2308  3340  3276
     305    305      1      1      0      1   2307  2311  3403  3339  2308  2312  3404  3340
     306    306      1      1      0      1   2311  2247  2439  3403  2312  2248  2440  3404
 
    ELEM    MAT    TYP    REL    ESY    SEC        NODES
 
     307    307      1      1      0      1   2043  2443  2447  2039  2044  2444  2448  2040
     308    308      1      1      0      1   2443  2507  2511  2447  2444  2508  2512  2448
     309    309      1      1      0      1   2507  2571  2575  2511  2508  2572  2576  2512
     310    310      1      1      0      1   2571  2635  2639  2575  2572  2636  2640  2576
     311    311      1      1      0      1   2635  2699  2703  2639  2636  2700  2704  2640
     312    312      1      1      0      1   2699  2763  2767  2703  2700  2764  2768  2704
     313    313      1      1      0      1   2763  2827  2831  2767  2764  2828  2832  2768
     314    314      1      1      0      1   2827  2891  2895  2831  2828  2892  2896  2832
     315    315      1      1      0      1   2891  2955  2959  2895  2892  2956  2960  2896
     316    316      1      1      0      1   2955  3019  3023  2959  2956  3020  3024  2960
     317    317      1      1      0      1   3019  3083  3087  3023  3020  3084  3088  3024
     318    318      1      1      0      1   3083  3147  3151  3087  3084  3148  3152  3088
     319    319      1      1      0      1   3147  3211  3215  3151  3148  3212  3216  3152
     320    320      1      1      0      1   3211  3275  3279  3215  3212  3276  3280  3216
     321    321      1      1      0      1   3275  3339  3343  3279  3276  3340  3344  3280
     322    322      1      1      0      1   3339  3403  3407  3343  3340  3404  3408  3344
     323    323      1      1      0      1   3403  2439  2435  3407  3404  2440  2436  3408
     324    324      1      1      0      1   2039  2447  2451  2035  2040  2448  2452  2036
     325    325      1      1      0      1   2447  2511  2515  2451  2448  2512  2516  2452
     326    326      1      1      0      1   2511  2575  2579  2515  2512  2576  2580  2516
 
    ELEM    MAT    TYP    REL    ESY    SEC        NODES
 
     327    327      1      1      0      1   2575  2639  2643  2579  2576  2640  2644  2580
     328    328      1      1      0      1   2639  2703  2707  2643  2640  2704  2708  2644
     329    329      1      1      0      1   2703  2767  2771  2707  2704  2768  2772  2708
     330    330      1      1      0      1   2767  2831  2835  2771  2768  2832  2836  2772
     331    331      1      1      0      1   2831  2895  2899  2835  2832  2896  2900  2836
     332    332      1      1      0      1   2895  2959  2963  2899  2896  2960  2964  2900
     333    333      1      1      0      1   2959  3023  3027  2963  2960  3024  3028  2964
     334    334      1      1      0      1   3023  3087  3091  3027  3024  3088  3092  3028
     335    335      1      1      0      1   3087  3151  3155  3091  3088  3152  3156  3092
     336    336      1      1      0      1   3151  3215  3219  3155  3152  3216  3220  3156
     337    337      1      1      0      1   3215  3279  3283  3219  3216  3280  3284  3220
     338    338      1      1      0      1   3279  3343  3347  3283  3280  3344  3348  3284
     339    339      1      1      0      1   3343  3407  3411  3347  3344  3408  3412  3348
     340    340      1      1      0      1   3407  2435  2431  3411  3408  2436  2432  3412
     341    341      1      1      0      1   2035  2451  2455  2031  2036  2452  2456  2032
     342    342      1      1      0      1   2451  2515  2519  2455  2452  2516  2520  2456
     343    343      1      1      0      1   2515  2579  2583  2519  2516  2580  2584  2520
     344    344      1      1      0      1   2579  2643  2647  2583  2580  2644  2648  2584
     345    345      1      1      0      1   2643  2707  2711  2647  2644  2708  2712  2648
     346    346      1      1      0      1   2707  2771  2775  2711  2708  2772  2776  2712
 
    ELEM    MAT    TYP    REL    ESY    SEC        NODES
 
     347    347      1      1      0      1   2771  2835  2839  2775  2772  2836  2840  2776
     348    348      1      1      0      1   2835  2899  2903  2839  2836  2900  2904  2840
     349    349      1      1      0      1   2899  2963  2967  2903  2900  2964  2968  2904
     350    350      1      1      0      1   2963  3027  3031  2967  2964  3028  3032  2968
     351    351      1      1      0      1   3027  3091  3095  3031  3028  3092  3096  3032
     352    352      1      1      0      1   3091  3155  3159  3095  3092  3156  3160  3096
     353    353      1      1      0      1   3155  3219  3223  3159  3156  3220  3224  3160
     354    354      1      1      0      1   3219  3283  3287  3223  3220  3284  3288  3224
     355    355      1      1      0      1   3283  3347  3351  3287  3284  3348  3352  3288
     356    356      1      1      0      1   3347  3411  3415  3351  3348  3412  3416  3352
     357    357      1      1      0      1   3411  2431  2427  3415  3412  2432  2428  3416
     358    358      1      1      0      1   2031  2455  2459  2027  2032  2456  2460  2028
     359    359      1      1      0      1   2455  2519  2523  2459  2456  2520  2524  2460
     360    360      1      1      0      1   2519  2583  2587  2523  2520  2584  2588  2524
     361    361      1      1      0      1   2583  2647  2651  2587  2584  2648  2652  2588
     362    362      1      1      0      1   2647  2711  2715  2651  2648  2712  2716  2652
     363    363      1      1      0      1   2711  2775  2779  2715  2712  2776  2780  2716
     364    364      1      1      0      1   2775  2839  2843  2779  2776  2840  2844  2780
     365    365      1      1      0      1   2839  2903  2907  2843  2840  2904  2908  2844
     366    366      1      1      0      1   2903  2967  2971  2907  2904  2968  2972  2908
 
    ELEM    MAT    TYP    REL    ESY    SEC        NODES
 
     367    367      1      1      0      1   2967  3031  3035  2971  2968  3032  3036  2972
     368    368      1      1      0      1   3031  3095  3099  3035  3032  3096  3100  3036
     369    369      1      1      0      1   3095  3159  3163  3099  3096  3160  3164  3100
     370    370      1      1      0      1   3159  3223  3227  3163  3160  3224  3228  3164
     371    371      1      1      0      1   3223  3287  3291  3227  3224  3288  3292  3228
     372    372      1      1      0      1   3287  3351  3355  3291  3288  3352  3356  3292
     373    373      1      1      0      1   3351  3415  3419  3355  3352  3416  3420  3356
     374    374      1      1      0      1   3415  2427  2423  3419  3416  2428  2424  3420
     376    376      1      1      0      1   2459  2523  2527  2463  2460  2524  2528  2464
     377    377      1      1      0      1   2523  2587  2591  2527  2524  2588  2592  2528
     378    378      1      1      0      1   2587  2651  2655  2591  2588  2652  2656  2592
     379    379      1      1      0      1   2651  2715  2719  2655  2652  2716  2720  2656
     380    380      1      1      0      1   2715  2779  2783  2719  2716  2780  2784  2720
     381    381      1      1      0      1   2779  2843  2847  2783  2780  2844  2848  2784
     382    382      1      1      0      1   2843  2907  2911  2847  2844  2908  2912  2848
     383    383      1      1      0      1   2907  2971  2975  2911  2908  2972  2976  2912
     384    384      1      1      0      1   2971  3035  3039  2975  2972  3036  3040  2976
     385    385      1      1      0      1   3035  3099  3103  3039  3036  3100  3104  3040
     386    386      1      1      0      1   3099  3163  3167  3103  3100  3164  3168  3104
     387    387      1      1      0      1   3163  3227  3231  3167  3164  3228  3232  3168
 
    ELEM    MAT    TYP    REL    ESY    SEC        NODES
 
     388    388      1      1      0      1   3227  3291  3295  3231  3228  3292  3296  3232
     389    389      1      1      0      1   3291  3355  3359  3295  3292  3356  3360  3296
     390    390      1      1      0      1   3355  3419  3423  3359  3356  3420  3424  3360
     391    391      1      1      0      1   3419  2423  2419  3423  3420  2424  2420  3424
     394    394      1      1      0      1   2527  2591  2595  2531  2528  2592  2596  2532
     395    395      1      1      0      1   2591  2655  2659  2595  2592  2656  2660  2596
     396    396      1      1      0      1   2655  2719  2723  2659  2656  2720  2724  2660
     397    397      1      1      0      1   2719  2783  2787  2723  2720  2784  2788  2724
     398    398      1      1      0      1   2783  2847  2851  2787  2784  2848  2852  2788
     399    399      1      1      0      1   2847  2911  2915  2851  2848  2912  2916  2852
     400    400      1      1      0      1   2911  2975  2979  2915  2912  2976  2980  2916
     401    401      1      1      0      1   2975  3039  3043  2979  2976  3040  3044  2980
     402    402      1      1      0      1   3039  3103  3107  3043  3040  3104  3108  3044
     403    403      1      1      0      1   3103  3167  3171  3107  3104  3168  3172  3108
     404    404      1      1      0      1   3167  3231  3235  3171  3168  3232  3236  3172
     405    405      1      1      0      1   3231  3295  3299  3235  3232  3296  3300  3236
     406    406      1      1      0      1   3295  3359  3363  3299  3296  3360  3364  3300
     407    407      1      1      0      1   3359  3423  3427  3363  3360  3424  3428  3364
     408    408      1      1      0      1   3423  2419  2415  3427  3424  2420  2416  3428
     413    413      1      1      0      1   2659  2723  2727  2663  2660  2724  2728  2664
 
    ELEM    MAT    TYP    REL    ESY    SEC        NODES
 
     414    414      1      1      0      1   2723  2787  2791  2727  2724  2788  2792  2728
     415    415      1      1      0      1   2787  2851  2855  2791  2788  2852  2856  2792
     416    416      1      1      0      1   2851  2915  2919  2855  2852  2916  2920  2856
     417    417      1      1      0      1   2915  2979  2983  2919  2916  2980  2984  2920
     418    418      1      1      0      1   2979  3043  3047  2983  2980  3044  3048  2984
     419    419      1      1      0      1   3043  3107  3111  3047  3044  3108  3112  3048
     420    420      1      1      0      1   3107  3171  3175  3111  3108  3172  3176  3112
     421    421      1      1      0      1   3171  3235  3239  3175  3172  3236  3240  3176
     422    422      1      1      0      1   3235  3299  3303  3239  3236  3300  3304  3240
     423    423      1      1      0      1   3299  3363  3367  3303  3300  3364  3368  3304
     424    424      1      1      0      1   3363  3427  3431  3367  3364  3428  3432  3368
     425    425      1      1      0      1   3427  2415  2411  3431  3428  2416  2412  3432
     432    432      1      1      0      1   2791  2855  2859  2795  2792  2856  2860  2796
     433    433      1      1      0      1   2855  2919  2923  2859  2856  2920  2924  2860
     434    434      1      1      0      1   2919  2983  2987  2923  2920  2984  2988  2924
     435    435      1      1      0      1   2983  3047  3051  2987  2984  3048  3052  2988
     436    436      1      1      0      1   3047  3111  3115  3051  3048  3112  3116  3052
     437    437      1      1      0      1   3111  3175  3179  3115  3112  3176  3180  3116
     438    438      1      1      0      1   3175  3239  3243  3179  3176  3240  3244  3180
     439    439      1      1      0      1   3239  3303  3307  3243  3240  3304  3308  3244
 
    ELEM    MAT    TYP    REL    ESY    SEC        NODES
 
     440    440      1      1      0      1   3303  3367  3371  3307  3304  3368  3372  3308
     441    441      1      1      0      1   3367  3431  3435  3371  3368  3432  3436  3372
     442    442      1      1      0      1   3431  2411  2407  3435  3432  2412  2408  3436
     455    455      1      1      0      1   3179  3243  3247  3183  3180  3244  3248  3184
     456    456      1      1      0      1   3243  3307  3311  3247  3244  3308  3312  3248
     457    457      1      1      0      1   3307  3371  3375  3311  3308  3372  3376  3312
     580    580      1      1      0      1   2252  2256  2508  2444  2253  2257  2509  2445
     581    581      1      1      0      1   2256  2260  2572  2508  2257  2261  2573  2509
     582    582      1      1      0      1   2260  2264  2636  2572  2261  2265  2637  2573
     583    583      1      1      0      1   2264  2268  2700  2636  2265  2269  2701  2637
     584    584      1      1      0      1   2268  2272  2764  2700  2269  2273  2765  2701
     585    585      1      1      0      1   2272  2276  2828  2764  2273  2277  2829  2765
     586    586      1      1      0      1   2276  2280  2892  2828  2277  2281  2893  2829
     587    587      1      1      0      1   2280  2284  2956  2892  2281  2285  2957  2893
     588    588      1      1      0      1   2284  2288  3020  2956  2285  2289  3021  2957
     589    589      1      1      0      1   2288  2292  3084  3020  2289  2293  3085  3021
     590    590      1      1      0      1   2292  2296  3148  3084  2293  2297  3149  3085
     591    591      1      1      0      1   2296  2300  3212  3148  2297  2301  3213  3149
     592    592      1      1      0      1   2300  2304  3276  3212  2301  2305  3277  3213
     593    593      1      1      0      1   2304  2308  3340  3276  2305  2309  3341  3277
 
    ELEM    MAT    TYP    REL    ESY    SEC        NODES
 
     594    594      1      1      0      1   2308  2312  3404  3340  2309  2313  3405  3341
     595    595      1      1      0      1   2312  2248  2440  3404  2313  2249  2441  3405
     597    597      1      1      0      1   2444  2508  2512  2448  2445  2509  2513  2449
     598    598      1      1      0      1   2508  2572  2576  2512  2509  2573  2577  2513
     599    599      1      1      0      1   2572  2636  2640  2576  2573  2637  2641  2577
     600    600      1      1      0      1   2636  2700  2704  2640  2637  2701  2705  2641
     601    601      1      1      0      1   2700  2764  2768  2704  2701  2765  2769  2705
     602    602      1      1      0      1   2764  2828  2832  2768  2765  2829  2833  2769
     603    603      1      1      0      1   2828  2892  2896  2832  2829  2893  2897  2833
     604    604      1      1      0      1   2892  2956  2960  2896  2893  2957  2961  2897
     605    605      1      1      0      1   2956  3020  3024  2960  2957  3021  3025  2961
     606    606      1      1      0      1   3020  3084  3088  3024  3021  3085  3089  3025
     607    607      1      1      0      1   3084  3148  3152  3088  3085  3149  3153  3089
     608    608      1      1      0      1   3148  3212  3216  3152  3149  3213  3217  3153
     609    609      1      1      0      1   3212  3276  3280  3216  3213  3277  3281  3217
     610    610      1      1      0      1   3276  3340  3344  3280  3277  3341  3345  3281
     611    611      1      1      0      1   3340  3404  3408  3344  3341  3405  3409  3345
     612    612      1      1      0      1   3404  2440  2436  3408  3405  2441  2437  3409
     614    614      1      1      0      1   2448  2512  2516  2452  2449  2513  2517  2453
     615    615      1      1      0      1   2512  2576  2580  2516  2513  2577  2581  2517
 
    ELEM    MAT    TYP    REL    ESY    SEC        NODES
 
     616    616      1      1      0      1   2576  2640  2644  2580  2577  2641  2645  2581
     617    617      1      1      0      1   2640  2704  2708  2644  2641  2705  2709  2645
     618    618      1      1      0      1   2704  2768  2772  2708  2705  2769  2773  2709
     619    619      1      1      0      1   2768  2832  2836  2772  2769  2833  2837  2773
     620    620      1      1      0      1   2832  2896  2900  2836  2833  2897  2901  2837
     621    621      1      1      0      1   2896  2960  2964  2900  2897  2961  2965  2901
     622    622      1      1      0      1   2960  3024  3028  2964  2961  3025  3029  2965
     623    623      1      1      0      1   3024  3088  3092  3028  3025  3089  3093  3029
     624    624      1      1      0      1   3088  3152  3156  3092  3089  3153  3157  3093
     625    625      1      1      0      1   3152  3216  3220  3156  3153  3217  3221  3157
     626    626      1      1      0      1   3216  3280  3284  3220  3217  3281  3285  3221
     627    627      1      1      0      1   3280  3344  3348  3284  3281  3345  3349  3285
     628    628      1      1      0      1   3344  3408  3412  3348  3345  3409  3413  3349
     629    629      1      1      0      1   3408  2436  2432  3412  3409  2437  2433  3413
     631    631      1      1      0      1   2452  2516  2520  2456  2453  2517  2521  2457
     632    632      1      1      0      1   2516  2580  2584  2520  2517  2581  2585  2521
     633    633      1      1      0      1   2580  2644  2648  2584  2581  2645  2649  2585
     634    634      1      1      0      1   2644  2708  2712  2648  2645  2709  2713  2649
     635    635      1      1      0      1   2708  2772  2776  2712  2709  2773  2777  2713
     636    636      1      1      0      1   2772  2836  2840  2776  2773  2837  2841  2777
 
    ELEM    MAT    TYP    REL    ESY    SEC        NODES
 
     637    637      1      1      0      1   2836  2900  2904  2840  2837  2901  2905  2841
     638    638      1      1      0      1   2900  2964  2968  2904  2901  2965  2969  2905
     639    639      1      1      0      1   2964  3028  3032  2968  2965  3029  3033  2969
     640    640      1      1      0      1   3028  3092  3096  3032  3029  3093  3097  3033
     641    641      1      1      0      1   3092  3156  3160  3096  3093  3157  3161  3097
     642    642      1      1      0      1   3156  3220  3224  3160  3157  3221  3225  3161
     643    643      1      1      0      1   3220  3284  3288  3224  3221  3285  3289  3225
     644    644      1      1      0      1   3284  3348  3352  3288  3285  3349  3353  3289
     645    645      1      1      0      1   3348  3412  3416  3352  3349  3413  3417  3353
     646    646      1      1      0      1   3412  2432  2428  3416  3413  2433  2429  3417
     648    648      1      1      0      1   2456  2520  2524  2460  2457  2521  2525  2461
     649    649      1      1      0      1   2520  2584  2588  2524  2521  2585  2589  2525
     650    650      1      1      0      1   2584  2648  2652  2588  2585  2649  2653  2589
     651    651      1      1      0      1   2648  2712  2716  2652  2649  2713  2717  2653
     652    652      1      1      0      1   2712  2776  2780  2716  2713  2777  2781  2717
     653    653      1      1      0      1   2776  2840  2844  2780  2777  2841  2845  2781
     654    654      1      1      0      1   2840  2904  2908  2844  2841  2905  2909  2845
     655    655      1      1      0      1   2904  2968  2972  2908  2905  2969  2973  2909
     656    656      1      1      0      1   2968  3032  3036  2972  2969  3033  3037  2973
     657    657      1      1      0      1   3032  3096  3100  3036  3033  3097  3101  3037
 
    ELEM    MAT    TYP    REL    ESY    SEC        NODES
 
     658    658      1      1      0      1   3096  3160  3164  3100  3097  3161  3165  3101
     659    659      1      1      0      1   3160  3224  3228  3164  3161  3225  3229  3165
     660    660      1      1      0      1   3224  3288  3292  3228  3225  3289  3293  3229
     661    661      1      1      0      1   3288  3352  3356  3292  3289  3353  3357  3293
     662    662      1      1      0      1   3352  3416  3420  3356  3353  3417  3421  3357
     663    663      1      1      0      1   3416  2428  2424  3420  3417  2429  2425  3421
     666    666      1      1      0      1   2524  2588  2592  2528  2525  2589  2593  2529
     667    667      1      1      0      1   2588  2652  2656  2592  2589  2653  2657  2593
     668    668      1      1      0      1   2652  2716  2720  2656  2653  2717  2721  2657
     669    669      1      1      0      1   2716  2780  2784  2720  2717  2781  2785  2721
     670    670      1      1      0      1   2780  2844  2848  2784  2781  2845  2849  2785
     671    671      1      1      0      1   2844  2908  2912  2848  2845  2909  2913  2849
     672    672      1      1      0      1   2908  2972  2976  2912  2909  2973  2977  2913
     673    673      1      1      0      1   2972  3036  3040  2976  2973  3037  3041  2977
     674    674      1      1      0      1   3036  3100  3104  3040  3037  3101  3105  3041
     675    675      1      1      0      1   3100  3164  3168  3104  3101  3165  3169  3105
     676    676      1      1      0      1   3164  3228  3232  3168  3165  3229  3233  3169
     677    677      1      1      0      1   3228  3292  3296  3232  3229  3293  3297  3233
     678    678      1      1      0      1   3292  3356  3360  3296  3293  3357  3361  3297
     679    679      1      1      0      1   3356  3420  3424  3360  3357  3421  3425  3361
 
    ELEM    MAT    TYP    REL    ESY    SEC        NODES
 
     680    680      1      1      0      1   3420  2424  2420  3424  3421  2425  2421  3425
     684    684      1      1      0      1   2592  2656  2660  2596  2593  2657  2661  2597
     685    685      1      1      0      1   2656  2720  2724  2660  2657  2721  2725  2661
     686    686      1      1      0      1   2720  2784  2788  2724  2721  2785  2789  2725
     687    687      1      1      0      1   2784  2848  2852  2788  2785  2849  2853  2789
     688    688      1      1      0      1   2848  2912  2916  2852  2849  2913  2917  2853
     689    689      1      1      0      1   2912  2976  2980  2916  2913  2977  2981  2917
     690    690      1      1      0      1   2976  3040  3044  2980  2977  3041  3045  2981
     691    691      1      1      0      1   3040  3104  3108  3044  3041  3105  3109  3045
     692    692      1      1      0      1   3104  3168  3172  3108  3105  3169  3173  3109
     693    693      1      1      0      1   3168  3232  3236  3172  3169  3233  3237  3173
     694    694      1      1      0      1   3232  3296  3300  3236  3233  3297  3301  3237
     695    695      1      1      0      1   3296  3360  3364  3300  3297  3361  3365  3301
     696    696      1      1      0      1   3360  3424  3428  3364  3361  3425  3429  3365
     697    697      1      1      0      1   3424  2420  2416  3428  3425  2421  2417  3429
     703    703      1      1      0      1   2724  2788  2792  2728  2725  2789  2793  2729
     704    704      1      1      0      1   2788  2852  2856  2792  2789  2853  2857  2793
     705    705      1      1      0      1   2852  2916  2920  2856  2853  2917  2921  2857
     706    706      1      1      0      1   2916  2980  2984  2920  2917  2981  2985  2921
     707    707      1      1      0      1   2980  3044  3048  2984  2981  3045  3049  2985
 
    ELEM    MAT    TYP    REL    ESY    SEC        NODES
 
     708    708      1      1      0      1   3044  3108  3112  3048  3045  3109  3113  3049
     709    709      1      1      0      1   3108  3172  3176  3112  3109  3173  3177  3113
     710    710      1      1      0      1   3172  3236  3240  3176  3173  3237  3241  3177
     711    711      1      1      0      1   3236  3300  3304  3240  3237  3301  3305  3241
     712    712      1      1      0      1   3300  3364  3368  3304  3301  3365  3369  3305
     713    713      1      1      0      1   3364  3428  3432  3368  3365  3429  3433  3369
     714    714      1      1      0      1   3428  2416  2412  3432  3429  2417  2413  3433
     722    722      1      1      0      1   2856  2920  2924  2860  2857  2921  2925  2861
     723    723      1      1      0      1   2920  2984  2988  2924  2921  2985  2989  2925
     724    724      1      1      0      1   2984  3048  3052  2988  2985  3049  3053  2989
     725    725      1      1      0      1   3048  3112  3116  3052  3049  3113  3117  3053
     726    726      1      1      0      1   3112  3176  3180  3116  3113  3177  3181  3117
     727    727      1      1      0      1   3176  3240  3244  3180  3177  3241  3245  3181
     728    728      1      1      0      1   3240  3304  3308  3244  3241  3305  3309  3245
     729    729      1      1      0      1   3304  3368  3372  3308  3305  3369  3373  3309
     730    730      1      1      0      1   3368  3432  3436  3372  3369  3433  3437  3373
     731    731      1      1      0      1   3432  2412  2408  3436  3433  2413  2409  3437
     743    743      1      1      0      1   3116  3180  3184  3120  3117  3181  3185  3121
     744    744      1      1      0      1   3180  3244  3248  3184  3181  3245  3249  3185
     745    745      1      1      0      1   3244  3308  3312  3248  3245  3309  3313  3249
 
    ELEM    MAT    TYP    REL    ESY    SEC        NODES
 
     746    746      1      1      0      1   3308  3372  3376  3312  3309  3373  3377  3313
     747    747      1      1      0      1   3372  3436  3440  3376  3373  3437  3441  3377
     748    748      1      1      0      1   3436  2408  2404  3440  3437  2409  2405  3441
     871    871      1      1      0      1   2261  2265  2637  2573  2262  2266  2638  2574
     872    872      1      1      0      1   2265  2269  2701  2637  2266  2270  2702  2638
     873    873      1      1      0      1   2269  2273  2765  2701  2270  2274  2766  2702
     874    874      1      1      0      1   2273  2277  2829  2765  2274  2278  2830  2766
     875    875      1      1      0      1   2277  2281  2893  2829  2278  2282  2894  2830
     876    876      1      1      0      1   2281  2285  2957  2893  2282  2286  2958  2894
     877    877      1      1      0      1   2285  2289  3021  2957  2286  2290  3022  2958
     878    878      1      1      0      1   2289  2293  3085  3021  2290  2294  3086  3022
     879    879      1      1      0      1   2293  2297  3149  3085  2294  2298  3150  3086
     880    880      1      1      0      1   2297  2301  3213  3149  2298  2302  3214  3150
     881    881      1      1      0      1   2301  2305  3277  3213  2302  2306  3278  3214
     882    882      1      1      0      1   2305  2309  3341  3277  2306  2310  3342  3278
     883    883      1      1      0      1   2309  2313  3405  3341  2310  2314  3406  3342
     884    884      1      1      0      1   2313  2249  2441  3405  2314  2250  2442  3406
     887    887      1      1      0      1   2509  2573  2577  2513  2510  2574  2578  2514
     888    888      1      1      0      1   2573  2637  2641  2577  2574  2638  2642  2578
     889    889      1      1      0      1   2637  2701  2705  2641  2638  2702  2706  2642
 
    ELEM    MAT    TYP    REL    ESY    SEC        NODES
 
     890    890      1      1      0      1   2701  2765  2769  2705  2702  2766  2770  2706
     891    891      1      1      0      1   2765  2829  2833  2769  2766  2830  2834  2770
     892    892      1      1      0      1   2829  2893  2897  2833  2830  2894  2898  2834
     893    893      1      1      0      1   2893  2957  2961  2897  2894  2958  2962  2898
     894    894      1      1      0      1   2957  3021  3025  2961  2958  3022  3026  2962
     895    895      1      1      0      1   3021  3085  3089  3025  3022  3086  3090  3026
     896    896      1      1      0      1   3085  3149  3153  3089  3086  3150  3154  3090
     897    897      1      1      0      1   3149  3213  3217  3153  3150  3214  3218  3154
     898    898      1      1      0      1   3213  3277  3281  3217  3214  3278  3282  3218
     899    899      1      1      0      1   3277  3341  3345  3281  3278  3342  3346  3282
     900    900      1      1      0      1   3341  3405  3409  3345  3342  3406  3410  3346
     901    901      1      1      0      1   3405  2441  2437  3409  3406  2442  2438  3410
     904    904      1      1      0      1   2513  2577  2581  2517  2514  2578  2582  2518
     905    905      1      1      0      1   2577  2641  2645  2581  2578  2642  2646  2582
     906    906      1      1      0      1   2641  2705  2709  2645  2642  2706  2710  2646
     907    907      1      1      0      1   2705  2769  2773  2709  2706  2770  2774  2710
     908    908      1      1      0      1   2769  2833  2837  2773  2770  2834  2838  2774
     909    909      1      1      0      1   2833  2897  2901  2837  2834  2898  2902  2838
     910    910      1      1      0      1   2897  2961  2965  2901  2898  2962  2966  2902
     911    911      1      1      0      1   2961  3025  3029  2965  2962  3026  3030  2966
 
    ELEM    MAT    TYP    REL    ESY    SEC        NODES
 
     912    912      1      1      0      1   3025  3089  3093  3029  3026  3090  3094  3030
     913    913      1      1      0      1   3089  3153  3157  3093  3090  3154  3158  3094
     914    914      1      1      0      1   3153  3217  3221  3157  3154  3218  3222  3158
     915    915      1      1      0      1   3217  3281  3285  3221  3218  3282  3286  3222
     916    916      1      1      0      1   3281  3345  3349  3285  3282  3346  3350  3286
     917    917      1      1      0      1   3345  3409  3413  3349  3346  3410  3414  3350
     918    918      1      1      0      1   3409  2437  2433  3413  3410  2438  2434  3414
     921    921      1      1      0      1   2517  2581  2585  2521  2518  2582  2586  2522
     922    922      1      1      0      1   2581  2645  2649  2585  2582  2646  2650  2586
     923    923      1      1      0      1   2645  2709  2713  2649  2646  2710  2714  2650
     924    924      1      1      0      1   2709  2773  2777  2713  2710  2774  2778  2714
     925    925      1      1      0      1   2773  2837  2841  2777  2774  2838  2842  2778
     926    926      1      1      0      1   2837  2901  2905  2841  2838  2902  2906  2842
     927    927      1      1      0      1   2901  2965  2969  2905  2902  2966  2970  2906
     928    928      1      1      0      1   2965  3029  3033  2969  2966  3030  3034  2970
     929    929      1      1      0      1   3029  3093  3097  3033  3030  3094  3098  3034
     930    930      1      1      0      1   3093  3157  3161  3097  3094  3158  3162  3098
     931    931      1      1      0      1   3157  3221  3225  3161  3158  3222  3226  3162
     932    932      1      1      0      1   3221  3285  3289  3225  3222  3286  3290  3226
     933    933      1      1      0      1   3285  3349  3353  3289  3286  3350  3354  3290
 
    ELEM    MAT    TYP    REL    ESY    SEC        NODES
 
     934    934      1      1      0      1   3349  3413  3417  3353  3350  3414  3418  3354
     935    935      1      1      0      1   3413  2433  2429  3417  3414  2434  2430  3418
     938    938      1      1      0      1   2521  2585  2589  2525  2522  2586  2590  2526
     939    939      1      1      0      1   2585  2649  2653  2589  2586  2650  2654  2590
     940    940      1      1      0      1   2649  2713  2717  2653  2650  2714  2718  2654
     941    941      1      1      0      1   2713  2777  2781  2717  2714  2778  2782  2718
     942    942      1      1      0      1   2777  2841  2845  2781  2778  2842  2846  2782
     943    943      1      1      0      1   2841  2905  2909  2845  2842  2906  2910  2846
     944    944      1      1      0      1   2905  2969  2973  2909  2906  2970  2974  2910
     945    945      1      1      0      1   2969  3033  3037  2973  2970  3034  3038  2974
     946    946      1      1      0      1   3033  3097  3101  3037  3034  3098  3102  3038
     947    947      1      1      0      1   3097  3161  3165  3101  3098  3162  3166  3102
     948    948      1      1      0      1   3161  3225  3229  3165  3162  3226  3230  3166
     949    949      1      1      0      1   3225  3289  3293  3229  3226  3290  3294  3230
     950    950      1      1      0      1   3289  3353  3357  3293  3290  3354  3358  3294
     951    951      1      1      0      1   3353  3417  3421  3357  3354  3418  3422  3358
     952    952      1      1      0      1   3417  2429  2425  3421  3418  2430  2426  3422
     956    956      1      1      0      1   2589  2653  2657  2593  2590  2654  2658  2594
     957    957      1      1      0      1   2653  2717  2721  2657  2654  2718  2722  2658
     958    958      1      1      0      1   2717  2781  2785  2721  2718  2782  2786  2722
 
    ELEM    MAT    TYP    REL    ESY    SEC        NODES
 
     959    959      1      1      0      1   2781  2845  2849  2785  2782  2846  2850  2786
     960    960      1      1      0      1   2845  2909  2913  2849  2846  2910  2914  2850
     961    961      1      1      0      1   2909  2973  2977  2913  2910  2974  2978  2914
     962    962      1      1      0      1   2973  3037  3041  2977  2974  3038  3042  2978
     963    963      1      1      0      1   3037  3101  3105  3041  3038  3102  3106  3042
     964    964      1      1      0      1   3101  3165  3169  3105  3102  3166  3170  3106
     965    965      1      1      0      1   3165  3229  3233  3169  3166  3230  3234  3170
     966    966      1      1      0      1   3229  3293  3297  3233  3230  3294  3298  3234
     967    967      1      1      0      1   3293  3357  3361  3297  3294  3358  3362  3298
     968    968      1      1      0      1   3357  3421  3425  3361  3358  3422  3426  3362
     969    969      1      1      0      1   3421  2425  2421  3425  3422  2426  2422  3426
     974    974      1      1      0      1   2657  2721  2725  2661  2658  2722  2726  2662
     975    975      1      1      0      1   2721  2785  2789  2725  2722  2786  2790  2726
     976    976      1      1      0      1   2785  2849  2853  2789  2786  2850  2854  2790
     977    977      1      1      0      1   2849  2913  2917  2853  2850  2914  2918  2854
     978    978      1      1      0      1   2913  2977  2981  2917  2914  2978  2982  2918
     979    979      1      1      0      1   2977  3041  3045  2981  2978  3042  3046  2982
     980    980      1      1      0      1   3041  3105  3109  3045  3042  3106  3110  3046
     981    981      1      1      0      1   3105  3169  3173  3109  3106  3170  3174  3110
     982    982      1      1      0      1   3169  3233  3237  3173  3170  3234  3238  3174
 
    ELEM    MAT    TYP    REL    ESY    SEC        NODES
 
     983    983      1      1      0      1   3233  3297  3301  3237  3234  3298  3302  3238
     984    984      1      1      0      1   3297  3361  3365  3301  3298  3362  3366  3302
     985    985      1      1      0      1   3361  3425  3429  3365  3362  3426  3430  3366
     986    986      1      1      0      1   3425  2421  2417  3429  3426  2422  2418  3430
     992    992      1      1      0      1   2725  2789  2793  2729  2726  2790  2794  2730
     993    993      1      1      0      1   2789  2853  2857  2793  2790  2854  2858  2794
     994    994      1      1      0      1   2853  2917  2921  2857  2854  2918  2922  2858
     995    995      1      1      0      1   2917  2981  2985  2921  2918  2982  2986  2922
     996    996      1      1      0      1   2981  3045  3049  2985  2982  3046  3050  2986
     997    997      1      1      0      1   3045  3109  3113  3049  3046  3110  3114  3050
     998    998      1      1      0      1   3109  3173  3177  3113  3110  3174  3178  3114
     999    999      1      1      0      1   3173  3237  3241  3177  3174  3238  3242  3178
    1000   1000      1      1      0      1   3237  3301  3305  3241  3238  3302  3306  3242
    1001   1001      1      1      0      1   3301  3365  3369  3305  3302  3366  3370  3306
    1002   1002      1      1      0      1   3365  3429  3433  3369  3366  3430  3434  3370
    1003   1003      1      1      0      1   3429  2417  2413  3433  3430  2418  2414  3434
    1011   1011      1      1      0      1   2857  2921  2925  2861  2858  2922  2926  2862
    1012   1012      1      1      0      1   2921  2985  2989  2925  2922  2986  2990  2926
    1013   1013      1      1      0      1   2985  3049  3053  2989  2986  3050  3054  2990
    1014   1014      1      1      0      1   3049  3113  3117  3053  3050  3114  3118  3054
 
    ELEM    MAT    TYP    REL    ESY    SEC        NODES
 
    1015   1015      1      1      0      1   3113  3177  3181  3117  3114  3178  3182  3118
    1016   1016      1      1      0      1   3177  3241  3245  3181  3178  3242  3246  3182
    1017   1017      1      1      0      1   3241  3305  3309  3245  3242  3306  3310  3246
    1018   1018      1      1      0      1   3305  3369  3373  3309  3306  3370  3374  3310
    1019   1019      1      1      0      1   3369  3433  3437  3373  3370  3434  3438  3374
    1020   1020      1      1      0      1   3433  2413  2409  3437  3434  2414  2410  3438
    1031   1031      1      1      0      1   3053  3117  3121  3057  3054  3118  3122  3058
    1032   1032      1      1      0      1   3117  3181  3185  3121  3118  3182  3186  3122
    1033   1033      1      1      0      1   3181  3245  3249  3185  3182  3246  3250  3186
    1034   1034      1      1      0      1   3245  3309  3313  3249  3246  3310  3314  3250
    1035   1035      1      1      0      1   3309  3373  3377  3313  3310  3374  3378  3314
    1036   1036      1      1      0      1   3373  3437  3441  3377  3374  3438  3442  3378
    1037   1037      1      1      0      1   3437  2409  2405  3441  3438  2410  2406  3442
    1161   1161      1      1      0      1   2266  2270  2702  2638  1058  1059  1647  1631
    1162   1162      1      1      0      1   2270  2274  2766  2702  1059  1060  1663  1647
    1163   1163      1      1      0      1   2274  2278  2830  2766  1060  1061  1679  1663
    1164   1164      1      1      0      1   2278  2282  2894  2830  1061  1062  1695  1679
    1165   1165      1      1      0      1   2282  2286  2958  2894  1062  1063  1711  1695
    1166   1166      1      1      0      1   2286  2290  3022  2958  1063  1064  1727  1711
    1167   1167      1      1      0      1   2290  2294  3086  3022  1064  1065  1743  1727
 
    ELEM    MAT    TYP    REL    ESY    SEC        NODES
 
    1168   1168      1      1      0      1   2294  2298  3150  3086  1065  1066  1759  1743
    1169   1169      1      1      0      1   2298  2302  3214  3150  1066  1067  1775  1759
    1170   1170      1      1      0      1   2302  2306  3278  3214  1067  1068  1791  1775
    1171   1171      1      1      0      1   2306  2310  3342  3278  1068  1069  1807  1791
    1172   1172      1      1      0      1   2310  2314  3406  3342  1069  1070  1823  1807
    1173   1173      1      1      0      1   2314  2250  2442  3406  1070  1022  1054  1823
    1178   1178      1      1      0      1   2638  2702  2706  2642  1631  1647  1648  1632
    1179   1179      1      1      0      1   2702  2766  2770  2706  1647  1663  1664  1648
    1180   1180      1      1      0      1   2766  2830  2834  2770  1663  1679  1680  1664
    1181   1181      1      1      0      1   2830  2894  2898  2834  1679  1695  1696  1680
    1182   1182      1      1      0      1   2894  2958  2962  2898  1695  1711  1712  1696
    1183   1183      1      1      0      1   2958  3022  3026  2962  1711  1727  1728  1712
    1184   1184      1      1      0      1   3022  3086  3090  3026  1727  1743  1744  1728
    1185   1185      1      1      0      1   3086  3150  3154  3090  1743  1759  1760  1744
    1186   1186      1      1      0      1   3150  3214  3218  3154  1759  1775  1776  1760
    1187   1187      1      1      0      1   3214  3278  3282  3218  1775  1791  1792  1776
    1188   1188      1      1      0      1   3278  3342  3346  3282  1791  1807  1808  1792
    1189   1189      1      1      0      1   3342  3406  3410  3346  1807  1823  1824  1808
    1190   1190      1      1      0      1   3406  2442  2438  3410  1823  1054  1053  1824
    1194   1194      1      1      0      1   2578  2642  2646  2582  1616  1632  1633  1617
 
    ELEM    MAT    TYP    REL    ESY    SEC        NODES
 
    1195   1195      1      1      0      1   2642  2706  2710  2646  1632  1648  1649  1633
    1196   1196      1      1      0      1   2706  2770  2774  2710  1648  1664  1665  1649
    1197   1197      1      1      0      1   2770  2834  2838  2774  1664  1680  1681  1665
    1198   1198      1      1      0      1   2834  2898  2902  2838  1680  1696  1697  1681
    1199   1199      1      1      0      1   2898  2962  2966  2902  1696  1712  1713  1697
    1200   1200      1      1      0      1   2962  3026  3030  2966  1712  1728  1729  1713
    1201   1201      1      1      0      1   3026  3090  3094  3030  1728  1744  1745  1729
    1202   1202      1      1      0      1   3090  3154  3158  3094  1744  1760  1761  1745
    1203   1203      1      1      0      1   3154  3218  3222  3158  1760  1776  1777  1761
    1204   1204      1      1      0      1   3218  3282  3286  3222  1776  1792  1793  1777
    1205   1205      1      1      0      1   3282  3346  3350  3286  1792  1808  1809  1793
    1206   1206      1      1      0      1   3346  3410  3414  3350  1808  1824  1825  1809
    1207   1207      1      1      0      1   3410  2438  2434  3414  1824  1053  1052  1825
    1211   1211      1      1      0      1   2582  2646  2650  2586  1617  1633  1634  1618
    1212   1212      1      1      0      1   2646  2710  2714  2650  1633  1649  1650  1634
    1213   1213      1      1      0      1   2710  2774  2778  2714  1649  1665  1666  1650
    1214   1214      1      1      0      1   2774  2838  2842  2778  1665  1681  1682  1666
    1215   1215      1      1      0      1   2838  2902  2906  2842  1681  1697  1698  1682
    1216   1216      1      1      0      1   2902  2966  2970  2906  1697  1713  1714  1698
    1217   1217      1      1      0      1   2966  3030  3034  2970  1713  1729  1730  1714
 
    ELEM    MAT    TYP    REL    ESY    SEC        NODES
 
    1218   1218      1      1      0      1   3030  3094  3098  3034  1729  1745  1746  1730
    1219   1219      1      1      0      1   3094  3158  3162  3098  1745  1761  1762  1746
    1220   1220      1      1      0      1   3158  3222  3226  3162  1761  1777  1778  1762
    1221   1221      1      1      0      1   3222  3286  3290  3226  1777  1793  1794  1778
    1222   1222      1      1      0      1   3286  3350  3354  3290  1793  1809  1810  1794
    1223   1223      1      1      0      1   3350  3414  3418  3354  1809  1825  1826  1810
    1224   1224      1      1      0      1   3414  2434  2430  3418  1825  1052  1051  1826
    1229   1229      1      1      0      1   2650  2714  2718  2654  1634  1650  1651  1635
    1230   1230      1      1      0      1   2714  2778  2782  2718  1650  1666  1667  1651
    1231   1231      1      1      0      1   2778  2842  2846  2782  1666  1682  1683  1667
    1232   1232      1      1      0      1   2842  2906  2910  2846  1682  1698  1699  1683
    1233   1233      1      1      0      1   2906  2970  2974  2910  1698  1714  1715  1699
    1234   1234      1      1      0      1   2970  3034  3038  2974  1714  1730  1731  1715
    1235   1235      1      1      0      1   3034  3098  3102  3038  1730  1746  1747  1731
    1236   1236      1      1      0      1   3098  3162  3166  3102  1746  1762  1763  1747
    1237   1237      1      1      0      1   3162  3226  3230  3166  1762  1778  1779  1763
    1238   1238      1      1      0      1   3226  3290  3294  3230  1778  1794  1795  1779
    1239   1239      1      1      0      1   3290  3354  3358  3294  1794  1810  1811  1795
    1240   1240      1      1      0      1   3354  3418  3422  3358  1810  1826  1827  1811
    1241   1241      1      1      0      1   3418  2430  2426  3422  1826  1051  1050  1827
 
    ELEM    MAT    TYP    REL    ESY    SEC        NODES
 
    1246   1246      1      1      0      1   2654  2718  2722  2658  1635  1651  1652  1636
    1247   1247      1      1      0      1   2718  2782  2786  2722  1651  1667  1668  1652
    1248   1248      1      1      0      1   2782  2846  2850  2786  1667  1683  1684  1668
    1249   1249      1      1      0      1   2846  2910  2914  2850  1683  1699  1700  1684
    1250   1250      1      1      0      1   2910  2974  2978  2914  1699  1715  1716  1700
    1251   1251      1      1      0      1   2974  3038  3042  2978  1715  1731  1732  1716
    1252   1252      1      1      0      1   3038  3102  3106  3042  1731  1747  1748  1732
    1253   1253      1      1      0      1   3102  3166  3170  3106  1747  1763  1764  1748
    1254   1254      1      1      0      1   3166  3230  3234  3170  1763  1779  1780  1764
    1255   1255      1      1      0      1   3230  3294  3298  3234  1779  1795  1796  1780
    1256   1256      1      1      0      1   3294  3358  3362  3298  1795  1811  1812  1796
    1257   1257      1      1      0      1   3358  3422  3426  3362  1811  1827  1828  1812
    1258   1258      1      1      0      1   3422  2426  2422  3426  1827  1050  1049  1828
    1264   1264      1      1      0      1   2722  2786  2790  2726  1652  1668  1669  1653
    1265   1265      1      1      0      1   2786  2850  2854  2790  1668  1684  1685  1669
    1266   1266      1      1      0      1   2850  2914  2918  2854  1684  1700  1701  1685
    1267   1267      1      1      0      1   2914  2978  2982  2918  1700  1716  1717  1701
    1268   1268      1      1      0      1   2978  3042  3046  2982  1716  1732  1733  1717
    1269   1269      1      1      0      1   3042  3106  3110  3046  1732  1748  1749  1733
    1270   1270      1      1      0      1   3106  3170  3174  3110  1748  1764  1765  1749
 
    ELEM    MAT    TYP    REL    ESY    SEC        NODES
 
    1271   1271      1      1      0      1   3170  3234  3238  3174  1764  1780  1781  1765
    1272   1272      1      1      0      1   3234  3298  3302  3238  1780  1796  1797  1781
    1273   1273      1      1      0      1   3298  3362  3366  3302  1796  1812  1813  1797
    1274   1274      1      1      0      1   3362  3426  3430  3366  1812  1828  1829  1813
    1275   1275      1      1      0      1   3426  2422  2418  3430  1828  1049  1048  1829
    1282   1282      1      1      0      1   2790  2854  2858  2794  1669  1685  1686  1670
    1283   1283      1      1      0      1   2854  2918  2922  2858  1685  1701  1702  1686
    1284   1284      1      1      0      1   2918  2982  2986  2922  1701  1717  1718  1702
    1285   1285      1      1      0      1   2982  3046  3050  2986  1717  1733  1734  1718
    1286   1286      1      1      0      1   3046  3110  3114  3050  1733  1749  1750  1734
    1287   1287      1      1      0      1   3110  3174  3178  3114  1749  1765  1766  1750
    1288   1288      1      1      0      1   3174  3238  3242  3178  1765  1781  1782  1766
    1289   1289      1      1      0      1   3238  3302  3306  3242  1781  1797  1798  1782
    1290   1290      1      1      0      1   3302  3366  3370  3306  1797  1813  1814  1798
    1291   1291      1      1      0      1   3366  3430  3434  3370  1813  1829  1830  1814
    1292   1292      1      1      0      1   3430  2418  2414  3434  1829  1048  1047  1830
    1300   1300      1      1      0      1   2858  2922  2926  2862  1686  1702  1703  1687
    1301   1301      1      1      0      1   2922  2986  2990  2926  1702  1718  1719  1703
    1302   1302      1      1      0      1   2986  3050  3054  2990  1718  1734  1735  1719
    1303   1303      1      1      0      1   3050  3114  3118  3054  1734  1750  1751  1735
 
    ELEM    MAT    TYP    REL    ESY    SEC        NODES
 
    1304   1304      1      1      0      1   3114  3178  3182  3118  1750  1766  1767  1751
    1305   1305      1      1      0      1   3178  3242  3246  3182  1766  1782  1783  1767
    1306   1306      1      1      0      1   3242  3306  3310  3246  1782  1798  1799  1783
    1307   1307      1      1      0      1   3306  3370  3374  3310  1798  1814  1815  1799
    1308   1308      1      1      0      1   3370  3434  3438  3374  1814  1830  1831  1815
    1309   1309      1      1      0      1   3434  2414  2410  3438  1830  1047  1046  1831
    1320   1320      1      1      0      1   3054  3118  3122  3058  1735  1751  1752  1736
    1321   1321      1      1      0      1   3118  3182  3186  3122  1751  1767  1768  1752
    1322   1322      1      1      0      1   3182  3246  3250  3186  1767  1783  1784  1768
    1323   1323      1      1      0      1   3246  3310  3314  3250  1783  1799  1800  1784
    1324   1324      1      1      0      1   3310  3374  3378  3314  1799  1815  1816  1800
    1325   1325      1      1      0      1   3374  3438  3442  3378  1815  1831  1832  1816
    1326   1326      1      1      0      1   3438  2410  2406  3442  1831  1046  1045  1832
    1446   1446      1      1      0      1     53   120   919    54  2179  2315  3467  2183
    1447   1447      1      1      0      1    120   121   918   919  2315  2319  3531  3467
    1448   1448      1      1      0      1    121   122   917   918  2319  2323  3595  3531
    1449   1449      1      1      0      1    122   123   916   917  2323  2327  3659  3595
    1450   1450      1      1      0      1    123   124   915   916  2327  2331  3723  3659
    1451   1451      1      1      0      1    124   125   914   915  2331  2335  3787  3723
    1452   1452      1      1      0      1    125   126   913   914  2335  2339  3851  3787
 
    ELEM    MAT    TYP    REL    ESY    SEC        NODES
 
    1453   1453      1      1      0      1    126   127   912   913  2339  2343  3915  3851
    1454   1454      1      1      0      1    127   128   911   912  2343  2347  3979  3915
    1455   1455      1      1      0      1    128   129   910   911  2347  2351  4043  3979
    1456   1456      1      1      0      1    129   130   909   910  2351  2355  4107  4043
    1457   1457      1      1      0      1    130   131   908   909  2355  2359  4171  4107
    1458   1458      1      1      0      1    131   132   907   908  2359  2363  4235  4171
    1459   1459      1      1      0      1    132   133   906   907  2363  2367  4299  4235
    1460   1460      1      1      0      1    133   134   905   906  2367  2371  4363  4299
    1461   1461      1      1      0      1    134   135   904   905  2371  2375  4427  4363
    1462   1462      1      1      0      1    135   103   151   904  2375  2247  2311  4427
    1463   1463      1      1      0      1     54   919   903    55  2183  3467  3471  2187
    1464   1464      1      1      0      1    919   918   902   903  3467  3531  3535  3471
    1465   1465      1      1      0      1    918   917   901   902  3531  3595  3599  3535
    1466   1466      1      1      0      1    917   916   900   901  3595  3659  3663  3599
    1467   1467      1      1      0      1    916   915   899   900  3659  3723  3727  3663
    1468   1468      1      1      0      1    915   914   898   899  3723  3787  3791  3727
    1469   1469      1      1      0      1    914   913   897   898  3787  3851  3855  3791
    1470   1470      1      1      0      1    913   912   896   897  3851  3915  3919  3855
    1471   1471      1      1      0      1    912   911   895   896  3915  3979  3983  3919
    1472   1472      1      1      0      1    911   910   894   895  3979  4043  4047  3983
 
    ELEM    MAT    TYP    REL    ESY    SEC        NODES
 
    1473   1473      1      1      0      1    910   909   893   894  4043  4107  4111  4047
    1474   1474      1      1      0      1    909   908   892   893  4107  4171  4175  4111
    1475   1475      1      1      0      1    908   907   891   892  4171  4235  4239  4175
    1476   1476      1      1      0      1    907   906   890   891  4235  4299  4303  4239
    1477   1477      1      1      0      1    906   905   889   890  4299  4363  4367  4303
    1478   1478      1      1      0      1    905   904   888   889  4363  4427  4431  4367
    1479   1479      1      1      0      1    904   151   150   888  4427  2311  2307  4431
    1480   1480      1      1      0      1     55   903   887    56  2187  3471  3475  2191
    1481   1481      1      1      0      1    903   902   886   887  3471  3535  3539  3475
    1482   1482      1      1      0      1    902   901   885   886  3535  3599  3603  3539
    1483   1483      1      1      0      1    901   900   884   885  3599  3663  3667  3603
    1484   1484      1      1      0      1    900   899   883   884  3663  3727  3731  3667
    1485   1485      1      1      0      1    899   898   882   883  3727  3791  3795  3731
    1486   1486      1      1      0      1    898   897   881   882  3791  3855  3859  3795
    1487   1487      1      1      0      1    897   896   880   881  3855  3919  3923  3859
    1488   1488      1      1      0      1    896   895   879   880  3919  3983  3987  3923
    1489   1489      1      1      0      1    895   894   878   879  3983  4047  4051  3987
    1490   1490      1      1      0      1    894   893   877   878  4047  4111  4115  4051
    1491   1491      1      1      0      1    893   892   876   877  4111  4175  4179  4115
    1492   1492      1      1      0      1    892   891   875   876  4175  4239  4243  4179
 
    ELEM    MAT    TYP    REL    ESY    SEC        NODES
 
    1493   1493      1      1      0      1    891   890   874   875  4239  4303  4307  4243
    1494   1494      1      1      0      1    890   889   873   874  4303  4367  4371  4307
    1495   1495      1      1      0      1    889   888   872   873  4367  4431  4435  4371
    1496   1496      1      1      0      1    888   150   149   872  4431  2307  2303  4435
    1497   1497      1      1      0      1     56   887   871    57  2191  3475  3479  2195
    1498   1498      1      1      0      1    887   886   870   871  3475  3539  3543  3479
    1499   1499      1      1      0      1    886   885   869   870  3539  3603  3607  3543
    1500   1500      1      1      0      1    885   884   868   869  3603  3667  3671  3607
    1501   1501      1      1      0      1    884   883   867   868  3667  3731  3735  3671
    1502   1502      1      1      0      1    883   882   866   867  3731  3795  3799  3735
    1503   1503      1      1      0      1    882   881   865   866  3795  3859  3863  3799
    1504   1504      1      1      0      1    881   880   864   865  3859  3923  3927  3863
    1505   1505      1      1      0      1    880   879   863   864  3923  3987  3991  3927
    1506   1506      1      1      0      1    879   878   862   863  3987  4051  4055  3991
    1507   1507      1      1      0      1    878   877   861   862  4051  4115  4119  4055
    1508   1508      1      1      0      1    877   876   860   861  4115  4179  4183  4119
    1509   1509      1      1      0      1    876   875   859   860  4179  4243  4247  4183
    1510   1510      1      1      0      1    875   874   858   859  4243  4307  4311  4247
    1511   1511      1      1      0      1    874   873   857   858  4307  4371  4375  4311
    1512   1512      1      1      0      1    873   872   856   857  4371  4435  4439  4375
 
    ELEM    MAT    TYP    REL    ESY    SEC        NODES
 
    1513   1513      1      1      0      1    872   149   148   856  4435  2303  2299  4439
    1515   1515      1      1      0      1    871   870   854   855  3479  3543  3547  3483
    1516   1516      1      1      0      1    870   869   853   854  3543  3607  3611  3547
    1517   1517      1      1      0      1    869   868   852   853  3607  3671  3675  3611
    1518   1518      1      1      0      1    868   867   851   852  3671  3735  3739  3675
    1519   1519      1      1      0      1    867   866   850   851  3735  3799  3803  3739
    1520   1520      1      1      0      1    866   865   849   850  3799  3863  3867  3803
    1521   1521      1      1      0      1    865   864   848   849  3863  3927  3931  3867
    1522   1522      1      1      0      1    864   863   847   848  3927  3991  3995  3931
    1523   1523      1      1      0      1    863   862   846   847  3991  4055  4059  3995
    1524   1524      1      1      0      1    862   861   845   846  4055  4119  4123  4059
    1525   1525      1      1      0      1    861   860   844   845  4119  4183  4187  4123
    1526   1526      1      1      0      1    860   859   843   844  4183  4247  4251  4187
    1527   1527      1      1      0      1    859   858   842   843  4247  4311  4315  4251
    1528   1528      1      1      0      1    858   857   841   842  4311  4375  4379  4315
    1529   1529      1      1      0      1    857   856   840   841  4375  4439  4443  4379
    1530   1530      1      1      0      1    856   148   147   840  4439  2299  2295  4443
    1533   1533      1      1      0      1    854   853   837   838  3547  3611  3615  3551
    1534   1534      1      1      0      1    853   852   836   837  3611  3675  3679  3615
    1535   1535      1      1      0      1    852   851   835   836  3675  3739  3743  3679
 
    ELEM    MAT    TYP    REL    ESY    SEC        NODES
 
    1536   1536      1      1      0      1    851   850   834   835  3739  3803  3807  3743
    1537   1537      1      1      0      1    850   849   833   834  3803  3867  3871  3807
    1538   1538      1      1      0      1    849   848   832   833  3867  3931  3935  3871
    1539   1539      1      1      0      1    848   847   831   832  3931  3995  3999  3935
    1540   1540      1      1      0      1    847   846   830   831  3995  4059  4063  3999
    1541   1541      1      1      0      1    846   845   829   830  4059  4123  4127  4063
    1542   1542      1      1      0      1    845   844   828   829  4123  4187  4191  4127
    1543   1543      1      1      0      1    844   843   827   828  4187  4251  4255  4191
    1544   1544      1      1      0      1    843   842   826   827  4251  4315  4319  4255
    1545   1545      1      1      0      1    842   841   825   826  4315  4379  4383  4319
    1546   1546      1      1      0      1    841   840   824   825  4379  4443  4447  4383
    1547   1547      1      1      0      1    840   147   146   824  4443  2295  2291  4447
    1550   1550      1      1      0      1    838   837   821   822  3551  3615  3619  3555
    1551   1551      1      1      0      1    837   836   820   821  3615  3679  3683  3619
    1552   1552      1      1      0      1    836   835   819   820  3679  3743  3747  3683
    1553   1553      1      1      0      1    835   834   818   819  3743  3807  3811  3747
    1554   1554      1      1      0      1    834   833   817   818  3807  3871  3875  3811
    1555   1555      1      1      0      1    833   832   816   817  3871  3935  3939  3875
    1556   1556      1      1      0      1    832   831   815   816  3935  3999  4003  3939
    1557   1557      1      1      0      1    831   830   814   815  3999  4063  4067  4003
 
    ELEM    MAT    TYP    REL    ESY    SEC        NODES
 
    1558   1558      1      1      0      1    830   829   813   814  4063  4127  4131  4067
    1559   1559      1      1      0      1    829   828   812   813  4127  4191  4195  4131
    1560   1560      1      1      0      1    828   827   811   812  4191  4255  4259  4195
    1561   1561      1      1      0      1    827   826   810   811  4255  4319  4323  4259
    1562   1562      1      1      0      1    826   825   809   810  4319  4383  4387  4323
    1563   1563      1      1      0      1    825   824   808   809  4383  4447  4451  4387
    1564   1564      1      1      0      1    824   146   145   808  4447  2291  2287  4451
    1568   1568      1      1      0      1    821   820   804   805  3619  3683  3687  3623
    1569   1569      1      1      0      1    820   819   803   804  3683  3747  3751  3687
    1570   1570      1      1      0      1    819   818   802   803  3747  3811  3815  3751
    1571   1571      1      1      0      1    818   817   801   802  3811  3875  3879  3815
    1572   1572      1      1      0      1    817   816   800   801  3875  3939  3943  3879
    1573   1573      1      1      0      1    816   815   799   800  3939  4003  4007  3943
    1574   1574      1      1      0      1    815   814   798   799  4003  4067  4071  4007
    1575   1575      1      1      0      1    814   813   797   798  4067  4131  4135  4071
    1576   1576      1      1      0      1    813   812   796   797  4131  4195  4199  4135
    1577   1577      1      1      0      1    812   811   795   796  4195  4259  4263  4199
    1578   1578      1      1      0      1    811   810   794   795  4259  4323  4327  4263
    1579   1579      1      1      0      1    810   809   793   794  4323  4387  4391  4327
    1580   1580      1      1      0      1    809   808   792   793  4387  4451  4455  4391
 
    ELEM    MAT    TYP    REL    ESY    SEC        NODES
 
    1581   1581      1      1      0      1    808   145   144   792  4451  2287  2283  4455
    1586   1586      1      1      0      1    804   803   787   788  3687  3751  3755  3691
    1587   1587      1      1      0      1    803   802   786   787  3751  3815  3819  3755
    1588   1588      1      1      0      1    802   801   785   786  3815  3879  3883  3819
    1589   1589      1      1      0      1    801   800   784   785  3879  3943  3947  3883
    1590   1590      1      1      0      1    800   799   783   784  3943  4007  4011  3947
    1591   1591      1      1      0      1    799   798   782   783  4007  4071  4075  4011
    1592   1592      1      1      0      1    798   797   781   782  4071  4135  4139  4075
    1593   1593      1      1      0      1    797   796   780   781  4135  4199  4203  4139
    1594   1594      1      1      0      1    796   795   779   780  4199  4263  4267  4203
    1595   1595      1      1      0      1    795   794   778   779  4263  4327  4331  4267
    1596   1596      1      1      0      1    794   793   777   778  4327  4391  4395  4331
    1597   1597      1      1      0      1    793   792   776   777  4391  4455  4459  4395
    1598   1598      1      1      0      1    792   144   143   776  4455  2283  2279  4459
    1604   1604      1      1      0      1    787   786   770   771  3755  3819  3823  3759
    1605   1605      1      1      0      1    786   785   769   770  3819  3883  3887  3823
    1606   1606      1      1      0      1    785   784   768   769  3883  3947  3951  3887
    1607   1607      1      1      0      1    784   783   767   768  3947  4011  4015  3951
    1608   1608      1      1      0      1    783   782   766   767  4011  4075  4079  4015
    1609   1609      1      1      0      1    782   781   765   766  4075  4139  4143  4079
 
    ELEM    MAT    TYP    REL    ESY    SEC        NODES
 
    1610   1610      1      1      0      1    781   780   764   765  4139  4203  4207  4143
    1611   1611      1      1      0      1    780   779   763   764  4203  4267  4271  4207
    1612   1612      1      1      0      1    779   778   762   763  4267  4331  4335  4271
    1613   1613      1      1      0      1    778   777   761   762  4331  4395  4399  4335
    1614   1614      1      1      0      1    777   776   760   761  4395  4459  4463  4399
    1615   1615      1      1      0      1    776   143   142   760  4459  2279  2275  4463
    1622   1622      1      1      0      1    770   769   753   754  3823  3887  3891  3827
    1623   1623      1      1      0      1    769   768   752   753  3887  3951  3955  3891
    1624   1624      1      1      0      1    768   767   751   752  3951  4015  4019  3955
[...]
    3875   3875      1      1      0      1   5409  5473  5477  5413  5410  5474  5478  5414
    3876   3876      1      1      0      1   5473  2357  2353  5477  5474  2358  2354  5478
    3885   3885      1      1      0      1   4965  5029  5033  4969  4966  5030  5034  4970
    3886   3886      1      1      0      1   5029  5093  5097  5033  5030  5094  5098  5034
    3887   3887      1      1      0      1   5093  5157  5161  5097  5094  5158  5162  5098
    3888   3888      1      1      0      1   5157  5221  5225  5161  5158  5222  5226  5162
    3889   3889      1      1      0      1   5221  5285  5289  5225  5222  5286  5290  5226
    3890   3890      1      1      0      1   5285  5349  5353  5289  5286  5350  5354  5290
    3891   3891      1      1      0      1   5349  5413  5417  5353  5350  5414  5418  5354
    3892   3892      1      1      0      1   5413  5477  5481  5417  5414  5478  5482  5418
    3893   3893      1      1      0      1   5477  2353  2349  5481  5478  2354  2350  5482
    3902   3902      1      1      0      1   4969  5033  5037  4973  4970  5034  5038  4974
    3903   3903      1      1      0      1   5033  5097  5101  5037  5034  5098  5102  5038
    3904   3904      1      1      0      1   5097  5161  5165  5101  5098  5162  5166  5102
    3905   3905      1      1      0      1   5161  5225  5229  5165  5162  5226  5230  5166
    3906   3906      1      1      0      1   5225  5289  5293  5229  5226  5290  5294  5230
    3907   3907      1      1      0      1   5289  5353  5357  5293  5290  5354  5358  5294
 
    ELEM    MAT    TYP    REL    ESY    SEC        NODES
 
    3908   3908      1      1      0      1   5353  5417  5421  5357  5354  5418  5422  5358
    3909   3909      1      1      0      1   5417  5481  5485  5421  5418  5482  5486  5422
    3910   3910      1      1      0      1   5481  2349  2345  5485  5482  2350  2346  5486
    3920   3920      1      1      0      1   5037  5101  5105  5041  5038  5102  5106  5042
    3921   3921      1      1      0      1   5101  5165  5169  5105  5102  5166  5170  5106
    3922   3922      1      1      0      1   5165  5229  5233  5169  5166  5230  5234  5170
    3923   3923      1      1      0      1   5229  5293  5297  5233  5230  5294  5298  5234
    3924   3924      1      1      0      1   5293  5357  5361  5297  5294  5358  5362  5298
    3925   3925      1      1      0      1   5357  5421  5425  5361  5358  5422  5426  5362
    3926   3926      1      1      0      1   5421  5485  5489  5425  5422  5486  5490  5426
    3927   3927      1      1      0      1   5485  2345  2341  5489  5486  2346  2342  5490
    3937   3937      1      1      0      1   5041  5105  5109  5045  5042  5106  5110  5046
    3938   3938      1      1      0      1   5105  5169  5173  5109  5106  5170  5174  5110
    3939   3939      1      1      0      1   5169  5233  5237  5173  5170  5234  5238  5174
    3940   3940      1      1      0      1   5233  5297  5301  5237  5234  5298  5302  5238
    3941   3941      1      1      0      1   5297  5361  5365  5301  5298  5362  5366  5302
    3942   3942      1      1      0      1   5361  5425  5429  5365  5362  5426  5430  5366
    3943   3943      1      1      0      1   5425  5489  5493  5429  5426  5490  5494  5430
    3944   3944      1      1      0      1   5489  2341  2337  5493  5490  2342  2338  5494
    3955   3955      1      1      0      1   5109  5173  5177  5113  5110  5174  5178  5114
 
    ELEM    MAT    TYP    REL    ESY    SEC        NODES
 
    3956   3956      1      1      0      1   5173  5237  5241  5177  5174  5238  5242  5178
    3957   3957      1      1      0      1   5237  5301  5305  5241  5238  5302  5306  5242
    3958   3958      1      1      0      1   5301  5365  5369  5305  5302  5366  5370  5306
    3959   3959      1      1      0      1   5365  5429  5433  5369  5366  5430  5434  5370
    3960   3960      1      1      0      1   5429  5493  5497  5433  5430  5494  5498  5434
    3961   3961      1      1      0      1   5493  2337  2333  5497  5494  2338  2334  5498
    3972   3972      1      1      0      1   5113  5177  5181  5117  5114  5178  5182  5118
    3973   3973      1      1      0      1   5177  5241  5245  5181  5178  5242  5246  5182
    3974   3974      1      1      0      1   5241  5305  5309  5245  5242  5306  5310  5246
    3975   3975      1      1      0      1   5305  5369  5373  5309  5306  5370  5374  5310
    3976   3976      1      1      0      1   5369  5433  5437  5373  5370  5434  5438  5374
    3977   3977      1      1      0      1   5433  5497  5501  5437  5434  5498  5502  5438
    3978   3978      1      1      0      1   5497  2333  2329  5501  5498  2334  2330  5502
    3990   3990      1      1      0      1   5181  5245  5249  5185  5182  5246  5250  5186
    3991   3991      1      1      0      1   5245  5309  5313  5249  5246  5310  5314  5250
    3992   3992      1      1      0      1   5309  5373  5377  5313  5310  5374  5378  5314
    3993   3993      1      1      0      1   5373  5437  5441  5377  5374  5438  5442  5378
    3994   3994      1      1      0      1   5437  5501  5505  5441  5438  5502  5506  5442
    3995   3995      1      1      0      1   5501  2329  2325  5505  5502  2330  2326  5506
    4010   4010      1      1      0      1   5377  5441  5445  5381  5378  5442  5446  5382
 
    ELEM    MAT    TYP    REL    ESY    SEC        NODES
 
    4054   4054      1      1      0      1   2406  2410  4942  4878  1045  1046  1439  1423
    4055   4055      1      1      0      1   2410  2414  5006  4942  1046  1047  1455  1439
    4056   4056      1      1      0      1   2414  2418  5070  5006  1047  1048  1471  1455
    4057   4057      1      1      0      1   2418  2422  5134  5070  1048  1049  1487  1471
    4058   4058      1      1      0      1   2422  2426  5198  5134  1049  1050  1503  1487
    4059   4059      1      1      0      1   2426  2430  5262  5198  1050  1051  1519  1503
    4060   4060      1      1      0      1   2430  2434  5326  5262  1051  1052  1535  1519
    4061   4061      1      1      0      1   2434  2438  5390  5326  1052  1053  1551  1535
    4062   4062      1      1      0      1   2438  2442  5454  5390  1053  1054  1567  1551
    4063   4063      1      1      0      1   2442  2250  2378  5454  1054  1022  1038  1567
    4071   4071      1      1      0      1   4878  4942  4946  4882  1423  1439  1440  1424
    4072   4072      1      1      0      1   4942  5006  5010  4946  1439  1455  1456  1440
    4073   4073      1      1      0      1   5006  5070  5074  5010  1455  1471  1472  1456
    4074   4074      1      1      0      1   5070  5134  5138  5074  1471  1487  1488  1472
    4075   4075      1      1      0      1   5134  5198  5202  5138  1487  1503  1504  1488
    4076   4076      1      1      0      1   5198  5262  5266  5202  1503  1519  1520  1504
    4077   4077      1      1      0      1   5262  5326  5330  5266  1519  1535  1536  1520
    4078   4078      1      1      0      1   5326  5390  5394  5330  1535  1551  1552  1536
    4079   4079      1      1      0      1   5390  5454  5458  5394  1551  1567  1568  1552
    4080   4080      1      1      0      1   5454  2378  2374  5458  1567  1038  1037  1568
 
    ELEM    MAT    TYP    REL    ESY    SEC        NODES
 
    4088   4088      1      1      0      1   4882  4946  4950  4886  1424  1440  1441  1425
    4089   4089      1      1      0      1   4946  5010  5014  4950  1440  1456  1457  1441
    4090   4090      1      1      0      1   5010  5074  5078  5014  1456  1472  1473  1457
    4091   4091      1      1      0      1   5074  5138  5142  5078  1472  1488  1489  1473
    4092   4092      1      1      0      1   5138  5202  5206  5142  1488  1504  1505  1489
    4093   4093      1      1      0      1   5202  5266  5270  5206  1504  1520  1521  1505
    4094   4094      1      1      0      1   5266  5330  5334  5270  1520  1536  1537  1521
    4095   4095      1      1      0      1   5330  5394  5398  5334  1536  1552  1553  1537
    4096   4096      1      1      0      1   5394  5458  5462  5398  1552  1568  1569  1553
    4097   4097      1      1      0      1   5458  2374  2370  5462  1568  1037  1036  1569
    4105   4105      1      1      0      1   4886  4950  4954  4890  1425  1441  1442  1426
    4106   4106      1      1      0      1   4950  5014  5018  4954  1441  1457  1458  1442
    4107   4107      1      1      0      1   5014  5078  5082  5018  1457  1473  1474  1458
    4108   4108      1      1      0      1   5078  5142  5146  5082  1473  1489  1490  1474
    4109   4109      1      1      0      1   5142  5206  5210  5146  1489  1505  1506  1490
    4110   4110      1      1      0      1   5206  5270  5274  5210  1505  1521  1522  1506
    4111   4111      1      1      0      1   5270  5334  5338  5274  1521  1537  1538  1522
    4112   4112      1      1      0      1   5334  5398  5402  5338  1537  1553  1554  1538
    4113   4113      1      1      0      1   5398  5462  5466  5402  1553  1569  1570  1554
    4114   4114      1      1      0      1   5462  2370  2366  5466  1569  1036  1035  1570
 
    ELEM    MAT    TYP    REL    ESY    SEC        NODES
 
    4122   4122      1      1      0      1   4890  4954  4958  4894  1426  1442  1443  1427
    4123   4123      1      1      0      1   4954  5018  5022  4958  1442  1458  1459  1443
    4124   4124      1      1      0      1   5018  5082  5086  5022  1458  1474  1475  1459
    4125   4125      1      1      0      1   5082  5146  5150  5086  1474  1490  1491  1475
    4126   4126      1      1      0      1   5146  5210  5214  5150  1490  1506  1507  1491
    4127   4127      1      1      0      1   5210  5274  5278  5214  1506  1522  1523  1507
    4128   4128      1      1      0      1   5274  5338  5342  5278  1522  1538  1539  1523
    4129   4129      1      1      0      1   5338  5402  5406  5342  1538  1554  1555  1539
    4130   4130      1      1      0      1   5402  5466  5470  5406  1554  1570  1571  1555
    4131   4131      1      1      0      1   5466  2366  2362  5470  1570  1035  1034  1571
    4139   4139      1      1      0      1   4894  4958  4962  4898  1427  1443  1444  1428
    4140   4140      1      1      0      1   4958  5022  5026  4962  1443  1459  1460  1444
    4141   4141      1      1      0      1   5022  5086  5090  5026  1459  1475  1476  1460
    4142   4142      1      1      0      1   5086  5150  5154  5090  1475  1491  1492  1476
    4143   4143      1      1      0      1   5150  5214  5218  5154  1491  1507  1508  1492
    4144   4144      1      1      0      1   5214  5278  5282  5218  1507  1523  1524  1508
    4145   4145      1      1      0      1   5278  5342  5346  5282  1523  1539  1540  1524
    4146   4146      1      1      0      1   5342  5406  5410  5346  1539  1555  1556  1540
    4147   4147      1      1      0      1   5406  5470  5474  5410  1555  1571  1572  1556
    4148   4148      1      1      0      1   5470  2362  2358  5474  1571  1034  1033  1572
 
    ELEM    MAT    TYP    REL    ESY    SEC        NODES
 
    4156   4156      1      1      0      1   4898  4962  4966  4902  1428  1444  1445  1429
    4157   4157      1      1      0      1   4962  5026  5030  4966  1444  1460  1461  1445
    4158   4158      1      1      0      1   5026  5090  5094  5030  1460  1476  1477  1461
    4159   4159      1      1      0      1   5090  5154  5158  5094  1476  1492  1493  1477
    4160   4160      1      1      0      1   5154  5218  5222  5158  1492  1508  1509  1493
    4161   4161      1      1      0      1   5218  5282  5286  5222  1508  1524  1525  1509
    4162   4162      1      1      0      1   5282  5346  5350  5286  1524  1540  1541  1525
    4163   4163      1      1      0      1   5346  5410  5414  5350  1540  1556  1557  1541
    4164   4164      1      1      0      1   5410  5474  5478  5414  1556  1572  1573  1557
    4165   4165      1      1      0      1   5474  2358  2354  5478  1572  1033  1032  1573
    4174   4174      1      1      0      1   4966  5030  5034  4970  1445  1461  1462  1446
    4175   4175      1      1      0      1   5030  5094  5098  5034  1461  1477  1478  1462
    4176   4176      1      1      0      1   5094  5158  5162  5098  1477  1493  1494  1478
    4177   4177      1      1      0      1   5158  5222  5226  5162  1493  1509  1510  1494
    4178   4178      1      1      0      1   5222  5286  5290  5226  1509  1525  1526  1510
    4179   4179      1      1      0      1   5286  5350  5354  5290  1525  1541  1542  1526
    4180   4180      1      1      0      1   5350  5414  5418  5354  1541  1557  1558  1542
    4181   4181      1      1      0      1   5414  5478  5482  5418  1557  1573  1574  1558
    4182   4182      1      1      0      1   5478  2354  2350  5482  1573  1032  1031  1574
    4191   4191      1      1      0      1   4970  5034  5038  4974  1446  1462  1463  1447
 
    ELEM    MAT    TYP    REL    ESY    SEC        NODES
 
    4192   4192      1      1      0      1   5034  5098  5102  5038  1462  1478  1479  1463
    4193   4193      1      1      0      1   5098  5162  5166  5102  1478  1494  1495  1479
    4194   4194      1      1      0      1   5162  5226  5230  5166  1494  1510  1511  1495
    4195   4195      1      1      0      1   5226  5290  5294  5230  1510  1526  1527  1511
    4196   4196      1      1      0      1   5290  5354  5358  5294  1526  1542  1543  1527
    4197   4197      1      1      0      1   5354  5418  5422  5358  1542  1558  1559  1543
    4198   4198      1      1      0      1   5418  5482  5486  5422  1558  1574  1575  1559
    4199   4199      1      1      0      1   5482  2350  2346  5486  1574  1031  1030  1575
    4209   4209      1      1      0      1   5038  5102  5106  5042  1463  1479  1480  1464
    4210   4210      1      1      0      1   5102  5166  5170  5106  1479  1495  1496  1480
    4211   4211      1      1      0      1   5166  5230  5234  5170  1495  1511  1512  1496
    4212   4212      1      1      0      1   5230  5294  5298  5234  1511  1527  1528  1512
    4213   4213      1      1      0      1   5294  5358  5362  5298  1527  1543  1544  1528
    4214   4214      1      1      0      1   5358  5422  5426  5362  1543  1559  1560  1544
    4215   4215      1      1      0      1   5422  5486  5490  5426  1559  1575  1576  1560
    4216   4216      1      1      0      1   5486  2346  2342  5490  1575  1030  1029  1576
    4226   4226      1      1      0      1   5042  5106  5110  5046  1464  1480  1481  1465
    4227   4227      1      1      0      1   5106  5170  5174  5110  1480  1496  1497  1481
    4228   4228      1      1      0      1   5170  5234  5238  5174  1496  1512  1513  1497
    4229   4229      1      1      0      1   5234  5298  5302  5238  1512  1528  1529  1513
 
    ELEM    MAT    TYP    REL    ESY    SEC        NODES
 
    4230   4230      1      1      0      1   5298  5362  5366  5302  1528  1544  1545  1529
    4231   4231      1      1      0      1   5362  5426  5430  5366  1544  1560  1561  1545
    4232   4232      1      1      0      1   5426  5490  5494  5430  1560  1576  1577  1561
    4233   4233      1      1      0      1   5490  2342  2338  5494  1576  1029  1028  1577
    4244   4244      1      1      0      1   5110  5174  5178  5114  1481  1497  1498  1482
    4245   4245      1      1      0      1   5174  5238  5242  5178  1497  1513  1514  1498
    4246   4246      1      1      0      1   5238  5302  5306  5242  1513  1529  1530  1514
    4247   4247      1      1      0      1   5302  5366  5370  5306  1529  1545  1546  1530
    4248   4248      1      1      0      1   5366  5430  5434  5370  1545  1561  1562  1546
    4249   4249      1      1      0      1   5430  5494  5498  5434  1561  1577  1578  1562
    4250   4250      1      1      0      1   5494  2338  2334  5498  1577  1028  1027  1578
    4262   4262      1      1      0      1   5178  5242  5246  5182  1498  1514  1515  1499
    4263   4263      1      1      0      1   5242  5306  5310  5246  1514  1530  1531  1515
    4264   4264      1      1      0      1   5306  5370  5374  5310  1530  1546  1547  1531
    4265   4265      1      1      0      1   5370  5434  5438  5374  1546  1562  1563  1547
    4266   4266      1      1      0      1   5434  5498  5502  5438  1562  1578  1579  1563
    4267   4267      1      1      0      1   5498  2334  2330  5502  1578  1027  1026  1579
    4336   4336      1      1      0      1     53  5615  5886    52  2179  7555  7747  2175
    4337   4337      1      1      0      1   5615  5616  5885  5886  7555  7559  7811  7747
    4338   4338      1      1      0      1   5616  5617  5884  5885  7559  7563  7875  7811
 
    ELEM    MAT    TYP    REL    ESY    SEC        NODES
 
    4353   4353      1      1      0      1     52  5886  5870    51  2175  7747  7751  2171
    4354   4354      1      1      0      1   5886  5885  5869  5870  7747  7811  7815  7751
    4355   4355      1      1      0      1   5885  5884  5868  5869  7811  7875  7879  7815
    4370   4370      1      1      0      1     51  5870  5854    50  2171  7751  7755  2167
    4371   4371      1      1      0      1   5870  5869  5853  5854  7751  7815  7819  7755
    4387   4387      1      1      0      1     50  5854  5838    49  2167  7755  7759  2163
    4388   4388      1      1      0      1   5854  5853  5837  5838  7755  7819  7823  7759
    4404   4404      1      1      0      1     49  5838  5822    48  2163  7759  7763  2159
    6051   6051      1      1      0      1   6160  6159  6143  6144  9723  9787  9791  9727
    6052   6052      1      1      0      1   6159  5616  5615  6143  9787  7559  7555  9791
    6067   6067      1      1      0      1   6145  6144    55    56  9663  9727  2187  2191
    6068   6068      1      1      0      1   6144  6143    54    55  9727  9791  2183  2187
    6069   6069      1      1      0      1   6143  5615    53    54  9791  7555  2179  2183
   14451  14451      1      1      0      1     86 16173 16972    87  2047 18023 19175  2051
   14452  14452      1      1      0      1  16173 16174 16971 16972 18023 18027 19239 19175
   14468  14468      1      1      0      1     87 16972 16956    88  2051 19175 19179  2055
   14469  14469      1      1      0      1  16972 16971 16955 16956 19175 19239 19243 19179
   14485  14485      1      1      0      1     88 16956 16940    89  2055 19179 19183  2059
   16149  16149      1      1      0      1  16494 16493 16477 16478 21147 21211 21215 21151
   16150  16150      1      1      0      1  16493 16175 16174 16477 21211 18031 18027 21215
 
    ELEM    MAT    TYP    REL    ESY    SEC        NODES
 
   16164  16164      1      1      0      1  16480 16479 16463 16464 21023 21087 21091 21027
   16165  16165      1      1      0      1  16479 16478 16462 16463 21087 21151 21155 21091
   16166  16166      1      1      0      1  16478 16477 16461 16462 21151 21215 21219 21155
   16167  16167      1      1      0      1  16477 16174 16173 16461 21215 18027 18023 21219
   16180  16180      1      1      0      1  16465 16464    82    81 20963 21027  2031  2027
   16181  16181      1      1      0      1  16464 16463    83    82 21027 21091  2035  2031
   16182  16182      1      1      0      1  16463 16462    84    83 21091 21155  2039  2035
   16183  16183      1      1      0      1  16462 16461    85    84 21155 21219  2043  2039
   16184  16184      1      1      0      1  16461 16173    86    85 21219 18023  2047  2043
   16471  16471      1      1      0      1  21091 21155  2039  2035 21092 21156  2040  2036
   16472  16472      1      1      0      1  21155 21219  2043  2039 21156 21220  2044  2040

